
  CDK

 12 13  0  0  0  0  0  0  0  0999 V2000
    1.1823   -0.0000    0.0000 C   0  0  0  0  0  0  0  0  0  0  0  0
    1.1162   -1.3323    0.0000 N   0  0  0  0  0  0  0  0  0  0  0  0
    2.1485   -2.1665    0.0000 C   0  0  0  0  0  0  0  0  0  0  0  0
    0.0000   -2.0524    0.0000 C   0  0  0  0  0  0  0  0  0  0  0  0
    3.4328   -1.8244    0.0000 C   0  0  0  0  0  0  0  0  0  0  0  0
    1.6744   -3.4087    0.0000 C   0  0  0  0  0  0  0  0  0  0  0  0
    0.3421   -3.3367    0.0000 C   0  0  0  0  0  0  0  0  0  0  0  0
    3.7748   -0.5401    0.0000 C   0  0  0  0  0  0  0  0  0  0  0  0
    4.3750   -2.7606    0.0000 C   0  0  0  0  0  0  0  0  0  0  0  0
    5.0591   -0.1920    0.0000 C   0  0  0  0  0  0  0  0  0  0  0  0
    5.6592   -2.4185    0.0000 N   0  0  0  0  0  0  0  0  0  0  0  0
    6.0013   -1.1342    0.0000 C   0  0  0  0  0  0  0  0  0  0  0  0
  1  2  1  0  0  0  0 
  2  3  1  0  0  0  0 
  2  4  1  0  0  0  0 
  3  5  1  6  0  0  0 
  3  6  1  0  0  0  0 
  7  4  1  0  0  0  0 
  5  8  2  0  0  0  0 
  5  9  1  0  0  0  0 
  6  7  1  0  0  0  0 
  8 10  1  0  0  0  0 
 11  9  2  0  0  0  0 
 10 12  2  0  0  0  0 
 12 11  1  0  0  0  0 
M  END
> <Name>
NICOTINE

> <Source>
DSSTox2DMolFile

> <Tox>
247

> <CAS>
54-11-5

$$$$

  CDK

  7  6  0  0  0  0  0  0  0  0999 V2000
    3.9928   -0.0000    0.0000 C   0  0  0  0  0  0  0  0  0  0  0  0
    2.6632   -0.0000    0.0000 C   0  0  0  0  0  0  0  0  0  0  0  0
    1.9964   -1.1499    0.0000 N   0  0  0  0  0  0  0  0  0  0  0  0
    2.6632   -2.3038    0.0000 C   0  0  0  0  0  0  0  0  0  0  0  0
    0.6668   -1.1499    0.0000 N   0  0  0  0  0  0  0  0  0  0  0  0
    3.9928   -2.3038    0.0000 C   0  0  0  0  0  0  0  0  0  0  0  0
    0.0000   -0.0000    0.0000 O   0  0  0  0  0  0  0  0  0  0  0  0
  1  2  1  0  0  0  0 
  2  3  1  0  0  0  0 
  3  4  1  0  0  0  0 
  3  5  1  0  0  0  0 
  4  6  1  0  0  0  0 
  5  7  2  0  0  0  0 
M  END
> <Name>
N-NITROSODIETHYLAMINE

> <Source>
DSSTox2DMolFile

> <Tox>
176.9

> <CAS>
55-18-5

$$$$

  CDK

  5  4  0  0  0  0  0  0  0  0999 V2000
    1.3300   -2.6600    0.0000 Cl  0  0  0  0  0  0  0  0  0  0  0  0
    1.3300   -1.3300    0.0000 C   0  0  0  0  0  0  0  0  0  0  0  0
    0.0000   -1.3300    0.0000 Cl  0  0  0  0  0  0  0  0  0  0  0  0
    1.3300   -0.0000    0.0000 Cl  0  0  0  0  0  0  0  0  0  0  0  0
    2.6600   -1.3300    0.0000 Cl  0  0  0  0  0  0  0  0  0  0  0  0
  1  2  1  0  0  0  0 
  2  3  1  0  0  0  0 
  2  4  1  0  0  0  0 
  2  5  1  0  0  0  0 
M  END
> <Name>
CARBON TETRACHLORIDE

> <Source>
DSSTox2DMolFile

> <Tox>
76.8

> <CAS>
56-23-5

$$$$

  CDK

 18 18  0  0  0  0  0  0  0  0999 V2000
    5.5046   -3.3251    0.0000 S   0  0  0  0  0  0  0  0  0  0  0  0
    6.6502   -2.6545    0.0000 P   0  0  0  0  0  0  0  0  0  0  0  0
    5.9889   -1.5089    0.0000 O   0  0  0  0  0  0  0  0  0  0  0  0
    7.8051   -1.9932    0.0000 O   0  0  0  0  0  0  0  0  0  0  0  0
    7.3208   -3.8094    0.0000 O   0  0  0  0  0  0  0  0  0  0  0  0
    4.6570   -1.5089    0.0000 C   0  0  0  0  0  0  0  0  0  0  0  0
    7.8051   -0.6613    0.0000 C   0  0  0  0  0  0  0  0  0  0  0  0
    8.6527   -3.8094    0.0000 C   0  0  0  0  0  0  0  0  0  0  0  0
    3.9957   -2.6545    0.0000 C   0  0  0  0  0  0  0  0  0  0  0  0
    3.9957   -0.3539    0.0000 C   0  0  0  0  0  0  0  0  0  0  0  0
    8.9601   -0.0000    0.0000 C   0  0  0  0  0  0  0  0  0  0  0  0
    9.3140   -2.6545    0.0000 C   0  0  0  0  0  0  0  0  0  0  0  0
    2.6638   -2.6545    0.0000 C   0  0  0  0  0  0  0  0  0  0  0  0
    2.6638   -0.3539    0.0000 C   0  0  0  0  0  0  0  0  0  0  0  0
    1.9932   -1.5089    0.0000 C   0  0  0  0  0  0  0  0  0  0  0  0
    0.6613   -1.5089    0.0000 N   0  0  0  0  0  0  0  0  0  0  0  0
    0.0000   -2.6545    0.0000 O   0  0  0  0  0  0  0  0  0  0  0  0
    0.0000   -0.3539    0.0000 O   0  0  0  0  0  0  0  0  0  0  0  0
  1  2  2  0  0  0  0 
  2  3  1  0  0  0  0 
  2  4  1  0  0  0  0 
  2  5  1  0  0  0  0 
  3  6  1  0  0  0  0 
  4  7  1  0  0  0  0 
  5  8  1  0  0  0  0 
  6  9  2  0  0  0  0 
  6 10  1  0  0  0  0 
  7 11  1  0  0  0  0 
  8 12  1  0  0  0  0 
  9 13  1  0  0  0  0 
 14 10  2  0  0  0  0 
 13 15  2  0  0  0  0 
 15 14  1  0  0  0  0 
 15 16  1  0  0  0  0 
 16 17  2  0  0  0  0 
 16 18  1  0  0  0  0 
M  CHG  1  16   1
M  CHG  1  18  -1
M  END
> <Name>
PARATHION

> <Source>
DSSTox2DMolFile

> <Tox>
375

> <CAS>
56-38-2

$$$$

  CDK

  6  5  0  0  0  0  0  0  0  0999 V2000
    0.0000   -0.6684    0.0000 C   0  0  0  0  0  0  0  0  0  0  0  0
    1.1525   -1.3311    0.0000 C   0  0  0  0  0  0  0  0  0  0  0  0
    2.3050   -0.6684    0.0000 C   0  0  0  0  0  0  0  0  0  0  0  0
    3.4575   -1.3311    0.0000 N   0  0  0  0  0  0  0  0  0  0  0  0
    4.6099   -0.6684    0.0000 C   0  0  0  0  0  0  0  0  0  0  0  0
    5.7624   -0.0000    0.0000 S   0  0  0  0  0  0  0  0  0  0  0  0
  1  2  2  0  0  0  0 
  2  3  1  0  0  0  0 
  3  4  1  0  0  0  0 
  4  5  2  0  0  0  0 
  5  6  2  0  0  0  0 
M  END
> <Name>
3-ISOTHIOCYANATO-1-PROPENE

> <Source>
DSSTox2DMolFile

> <Tox>
152

> <CAS>
57-06-7

$$$$

  CDK

  5  5  0  0  0  0  0  0  0  0999 V2000
    0.0000   -0.9406    0.0000 O   0  0  0  0  0  0  0  0  0  0  0  0
    1.3291   -0.9406    0.0000 C   0  0  0  0  0  0  0  0  0  0  0  0
    2.2697   -0.0000    0.0000 C   0  0  0  0  0  0  0  0  0  0  0  0
    2.2697   -1.8812    0.0000 O   0  0  0  0  0  0  0  0  0  0  0  0
    3.2103   -0.9406    0.0000 C   0  0  0  0  0  0  0  0  0  0  0  0
  1  2  2  0  0  0  0 
  2  3  1  0  0  0  0 
  2  4  1  0  0  0  0 
  3  5  1  0  0  0  0 
  5  4  1  0  0  0  0 
M  END
> <Name>
BETA-PROPIOLACTONE

> <Source>
DSSTox2DMolFile

> <Tox>
162

> <CAS>
57-57-8

$$$$

  CDK

 10 11  0  0  0  0  0  0  0  0999 V2000
    0.0000    1.4006    0.0000 C   0  0  0  0  0  0  0  0  0  0  0  0
    0.0000    0.5002    0.0000 C   0  0  0  0  0  0  0  0  0  0  0  0
    0.8003    1.9008    0.0000 C   0  0  0  0  0  0  0  0  0  0  0  0
    0.8003    0.0000    0.0000 C   0  0  0  0  0  0  0  0  0  0  0  0
    1.6006    1.4506    0.0000 C   0  0  0  0  0  0  0  0  0  0  0  0
    1.6006    0.5002    0.0000 C   0  0  0  0  0  0  0  0  0  0  0  0
    2.4010    1.9008    0.0000 O   0  0  0  0  0  0  0  0  0  0  0  0
    3.2513    0.5002    0.0000 N   0  0  0  0  0  0  0  0  0  0  0  0
    3.2513    1.4506    0.0000 C   0  0  0  0  0  0  0  0  0  0  0  0
    4.0516    1.9008    0.0000 O   0  0  0  0  0  0  0  0  0  0  0  0
  2  1  2  0  0  0  0 
  1  3  1  0  0  0  0 
  4  2  1  0  0  0  0 
  3  5  2  0  0  0  0 
  6  4  2  0  0  0  0 
  6  5  1  0  0  0  0 
  5  7  1  0  0  0  0 
  8  6  1  0  0  0  0 
  7  9  1  0  0  0  0 
  9  8  1  0  0  0  0 
  9 10  2  0  0  0  0 
M  END
> <Name>
O-PHENYLENE CARBAMATE

> <Source>
NIST2DMolFile

> <Tox>
335

> <CAS>
59-49-4

$$$$

  CDK

 21 20  0  0  0  0  0  0  0  0999 V2000
    4.5791    4.2772    0.0000 C   0  0  0  0  0  0  0  0  0  0  0  0
    4.0759    3.4721    0.0000 O   0  0  0  0  0  0  0  0  0  0  0  0
    5.5352    4.2772    0.0000 C   0  0  0  0  0  0  0  0  0  0  0  0
    4.0759    5.1830    0.0000 C   0  0  0  0  0  0  0  0  0  0  0  0
    4.5791    2.6166    0.0000 C   0  0  0  0  0  0  0  0  0  0  0  0
    6.0384    5.1830    0.0000 O   0  0  0  0  0  0  0  0  0  0  0  0
    3.0695    5.1830    0.0000 O   0  0  0  0  0  0  0  0  0  0  0  0
    4.0759    1.7109    0.0000 C   0  0  0  0  0  0  0  0  0  0  0  0
    5.5352    2.6166    0.0000 O   0  0  0  0  0  0  0  0  0  0  0  0
    7.0448    5.1830    0.0000 C   0  0  0  0  0  0  0  0  0  0  0  0
    2.5663    6.0384    0.0000 C   0  0  0  0  0  0  0  0  0  0  0  0
    4.5791    0.8554    0.0000 C   0  0  0  0  0  0  0  0  0  0  0  0
    7.5480    6.0384    0.0000 C   0  0  0  0  0  0  0  0  0  0  0  0
    7.4977    4.2772    0.0000 O   0  0  0  0  0  0  0  0  0  0  0  0
    1.5599    6.0384    0.0000 C   0  0  0  0  0  0  0  0  0  0  0  0
    3.0192    6.8938    0.0000 O   0  0  0  0  0  0  0  0  0  0  0  0
    4.0759    0.0000    0.0000 C   0  0  0  0  0  0  0  0  0  0  0  0
    8.5544    6.0384    0.0000 C   0  0  0  0  0  0  0  0  0  0  0  0
    1.0064    6.8938    0.0000 C   0  0  0  0  0  0  0  0  0  0  0  0
    9.0576    6.9441    0.0000 C   0  0  0  0  0  0  0  0  0  0  0  0
    0.0000    6.8938    0.0000 C   0  0  0  0  0  0  0  0  0  0  0  0
  1  2  1  0  0  0  0 
  1  3  1  0  0  0  0 
  1  4  1  0  0  0  0 
  2  5  1  0  0  0  0 
  3  6  1  0  0  0  0 
  4  7  1  0  0  0  0 
  5  8  1  0  0  0  0 
  5  9  2  0  0  0  0 
 10  6  1  0  0  0  0 
 11  7  1  0  0  0  0 
  8 12  1  0  0  0  0 
 13 10  1  0  0  0  0 
 10 14  2  0  0  0  0 
 15 11  1  0  0  0  0 
 11 16  2  0  0  0  0 
 12 17  1  0  0  0  0 
 18 13  1  0  0  0  0 
 19 15  1  0  0  0  0 
 20 18  1  0  0  0  0 
 21 19  1  0  0  0  0 
M  END
> <Name>
TRIBUTYRIN

> <Source>
NIST2DMolFile

> <Tox>
307.5

> <CAS>
60-01-5

$$$$

  CDK

 15 16  0  0  0  0  0  0  0  0999 V2000
    4.6587   -2.3044    0.0000 N   0  0  0  0  0  0  0  0  0  0  0  0
    3.9903   -1.1472    0.0000 N   0  0  0  0  0  0  0  0  0  0  0  0
    5.9855   -2.3044    0.0000 C   0  0  0  0  0  0  0  0  0  0  0  0
    2.6635   -1.1472    0.0000 C   0  0  0  0  0  0  0  0  0  0  0  0
    6.6538   -1.1472    0.0000 C   0  0  0  0  0  0  0  0  0  0  0  0
    6.6538   -3.4516    0.0000 C   0  0  0  0  0  0  0  0  0  0  0  0
    1.9952   -2.3044    0.0000 C   0  0  0  0  0  0  0  0  0  0  0  0
    1.9952   -0.0000    0.0000 C   0  0  0  0  0  0  0  0  0  0  0  0
    7.9806   -1.1472    0.0000 C   0  0  0  0  0  0  0  0  0  0  0  0
    7.9806   -3.4516    0.0000 C   0  0  0  0  0  0  0  0  0  0  0  0
    0.6684   -2.3044    0.0000 C   0  0  0  0  0  0  0  0  0  0  0  0
    0.6684   -0.0000    0.0000 C   0  0  0  0  0  0  0  0  0  0  0  0
    8.6490   -2.3044    0.0000 C   0  0  0  0  0  0  0  0  0  0  0  0
    0.0000   -1.1472    0.0000 C   0  0  0  0  0  0  0  0  0  0  0  0
    9.9758   -2.3044    0.0000 N   0  0  0  0  0  0  0  0  0  0  0  0
  1  2  2  0  0  0  0 
  1  3  1  0  0  0  0 
  2  4  1  0  0  0  0 
  3  5  2  0  0  0  0 
  3  6  1  0  0  0  0 
  4  7  2  0  0  0  0 
  4  8  1  0  0  0  0 
  5  9  1  0  0  0  0 
 10  6  2  0  0  0  0 
  7 11  1  0  0  0  0 
 12  8  2  0  0  0  0 
  9 13  2  0  0  0  0 
 13 10  1  0  0  0  0 
 11 14  2  0  0  0  0 
 14 12  1  0  0  0  0 
 13 15  1  0  0  0  0 
M  END
> <Name>
P-PHENYLAZOANILINE

> <Source>
DSSTox2DMolFile

> <Tox>
366

> <CAS>
60-09-3

$$$$

  CDK

  9  9  0  0  0  0  0  0  0  0999 V2000
    2.0190   -3.4571    0.0000 C   0  0  0  0  0  0  0  0  0  0  0  0
    2.7151   -4.6076    0.0000 C   0  0  0  0  0  0  0  0  0  0  0  0
    0.6960   -3.4571    0.0000 C   0  0  0  0  0  0  0  0  0  0  0  0
    2.6518   -2.2952    0.0000 C   0  0  0  0  0  0  0  0  0  0  0  0
    2.0190   -5.7523    0.0000 C   0  0  0  0  0  0  0  0  0  0  0  0
    0.0000   -4.6076    0.0000 C   0  0  0  0  0  0  0  0  0  0  0  0
    1.9903   -1.1447    0.0000 C   0  0  0  0  0  0  0  0  0  0  0  0
    0.6960   -5.7523    0.0000 C   0  0  0  0  0  0  0  0  0  0  0  0
    2.6173   -0.0000    0.0000 O   0  0  0  0  0  0  0  0  0  0  0  0
  1  2  2  0  0  0  0 
  1  3  1  0  0  0  0 
  1  4  1  0  0  0  0 
  2  5  1  0  0  0  0 
  6  3  2  0  0  0  0 
  7  4  1  0  0  0  0 
  5  8  2  0  0  0  0 
  8  6  1  0  0  0  0 
  7  9  1  0  0  0  0 
M  END
> <Name>
2-PHENYLETHANOL

> <Source>
DSSTox2DMolFile

> <Tox>
218.2

> <CAS>
60-12-8

$$$$

  CDK

  4  3  0  0  0  0  0  0  0  0999 V2000
    1.1483   -0.0000    0.0000 C   0  0  0  0  0  0  0  0  0  0  0  0
    2.3001   -0.6690    0.0000 C   0  0  0  0  0  0  0  0  0  0  0  0
    0.0000   -0.6690    0.0000 O   0  0  0  0  0  0  0  0  0  0  0  0
    3.4485   -0.0000    0.0000 S   0  0  0  0  0  0  0  0  0  0  0  0
  1  2  1  0  0  0  0 
  1  3  1  0  0  0  0 
  2  4  1  0  0  0  0 
M  END
> <Name>
Ethanol, 2-mercapto-

> <Source>
DSSTox2DMolFile

> <Tox>
158

> <CAS>
60-24-2

$$$$

  CDK

  4  3  0  0  0  0  0  0  0  0999 V2000
    1.9950   -0.0000    0.0000 C   0  0  0  0  0  0  0  0  0  0  0  0
    1.3292   -1.1518    0.0000 C   0  0  0  0  0  0  0  0  0  0  0  0
    1.9950   -2.3037    0.0000 O   0  0  0  0  0  0  0  0  0  0  0  0
    0.0000   -1.1518    0.0000 N   0  0  0  0  0  0  0  0  0  0  0  0
  1  2  1  0  0  0  0 
  2  3  2  0  0  0  0 
  2  4  1  0  0  0  0 
M  END
> <Name>
ACETAMIDE

> <Source>
DSSTox2DMolFile

> <Tox>
222

> <CAS>
60-35-5

$$$$

  CDK

 19 23  0  0  0  0  0  0  0  0999 V2000
    1.2310   -2.6401    0.0000 C   0  0  0  0  0  0  0  0  0  0  0  0
    0.0000   -2.6401    0.0000 O   0  0  0  0  0  0  0  0  0  0  0  0
    0.6007   -3.6931    0.0000 C   0  0  0  0  0  0  0  0  0  0  0  0
    2.2470   -2.9219    0.0000 C   0  0  0  0  0  0  0  0  0  0  0  0
    1.7946   -3.9008    0.0000 C   0  0  0  0  0  0  0  0  0  0  0  0
    3.4113   -2.7068    0.0000 C   0  0  0  0  0  0  0  0  0  0  0  0
    2.1061   -5.0280    0.0000 C   0  0  0  0  0  0  0  0  0  0  0  0
    3.3001   -3.6931    0.0000 C   0  0  0  0  0  0  0  0  0  0  0  0
    4.8500   -2.0023    0.0000 C   0  0  0  0  0  0  0  0  0  0  0  0
    4.3902   -3.1295    0.0000 C   0  0  0  0  0  0  0  0  0  0  0  0
    6.3258   -2.7068    0.0000 C   0  0  0  0  0  0  0  0  0  0  0  0
    4.3902   -0.7787    0.0000 C   0  0  0  0  0  0  0  0  0  0  0  0
    5.6583   -1.1643    0.0000 Cl  0  0  0  0  0  0  0  0  0  0  0  0
    5.6954   -3.7599    0.0000 C   0  0  0  0  0  0  0  0  0  0  0  0
    3.9749   -4.3235    0.0000 Cl  0  0  0  0  0  0  0  0  0  0  0  0
    7.4159   -2.4250    0.0000 Cl  0  0  0  0  0  0  0  0  0  0  0  0
    5.1318   -0.0000    0.0000 Cl  0  0  0  0  0  0  0  0  0  0  0  0
    3.5522   -0.0742    0.0000 Cl  0  0  0  0  0  0  0  0  0  0  0  0
    6.1478   -4.8203    0.0000 Cl  0  0  0  0  0  0  0  0  0  0  0  0
  1  2  1  0  0  0  0 
  1  3  1  0  0  0  0 
  1  4  1  0  0  0  0 
  2  3  1  0  0  0  0 
  3  5  1  0  0  0  0 
  4  6  1  0  0  0  0 
  4  7  1  0  0  0  0 
  5  7  1  0  0  0  0 
  5  8  1  0  0  0  0 
  6  9  1  0  0  0  0 
  6  8  1  0  0  0  0 
  8 10  1  0  0  0  0 
  9 11  1  0  0  0  0 
  9 12  1  0  0  0  0 
  9 13  1  0  0  0  0 
 10 14  1  0  0  0  0 
 10 12  1  0  0  0  0 
 10 15  1  0  0  0  0 
 14 11  2  0  0  0  0 
 11 16  1  0  0  0  0 
 12 17  1  0  0  0  0 
 12 18  1  0  0  0  0 
 14 19  1  0  0  0  0 
M  END
> <Name>
DIELDRIN

> <Source>
DSSTox2DMolFile

> <Tox>
330

> <CAS>
60-57-1

$$$$

  CDK

 14 15  0  0  0  0  0  0  0  0999 V2000
    4.8193   -4.5221    0.0000 C   0  0  0  0  0  0  0  0  0  0  0  0
    4.8917   -3.1959    0.0000 N   0  0  0  0  0  0  0  0  0  0  0  0
    3.8554   -2.3553    0.0000 N   0  0  0  0  0  0  0  0  0  0  0  0
    6.0078   -2.4712    0.0000 C   0  0  0  0  0  0  0  0  0  0  0  0
    2.5727   -2.7031    0.0000 C   0  0  0  0  0  0  0  0  0  0  0  0
    4.3337   -1.1160    0.0000 C   0  0  0  0  0  0  0  0  0  0  0  0
    5.6599   -1.1813    0.0000 C   0  0  0  0  0  0  0  0  0  0  0  0
    7.2470   -2.9423    0.0000 C   0  0  0  0  0  0  0  0  0  0  0  0
    2.2248   -3.9859    0.0000 C   0  0  0  0  0  0  0  0  0  0  0  0
    1.6306   -1.7610    0.0000 C   0  0  0  0  0  0  0  0  0  0  0  0
    3.6090   -0.0000    0.0000 O   0  0  0  0  0  0  0  0  0  0  0  0
    0.9421   -4.3265    0.0000 C   0  0  0  0  0  0  0  0  0  0  0  0
    0.3479   -2.1016    0.0000 C   0  0  0  0  0  0  0  0  0  0  0  0
    0.0000   -3.3916    0.0000 C   0  0  0  0  0  0  0  0  0  0  0  0
  1  2  1  0  0  0  0 
  2  3  1  0  0  0  0 
  2  4  1  0  0  0  0 
  3  5  1  0  0  0  0 
  3  6  1  0  0  0  0 
  7  4  2  0  0  0  0 
  4  8  1  0  0  0  0 
  5  9  2  0  0  0  0 
  5 10  1  0  0  0  0 
  6 11  2  0  0  0  0 
  6  7  1  0  0  0  0 
  9 12  1  0  0  0  0 
 13 10  2  0  0  0  0 
 12 14  2  0  0  0  0 
 14 13  1  0  0  0  0 
M  END
> <Name>
ANTIPYRINE

> <Source>
DSSTox2DMolFile

> <Tox>
319

> <CAS>
60-80-0

$$$$

  CDK

  7  7  0  0  0  0  0  0  0  0999 V2000
    0.0000   -1.1496    0.0000 N   0  0  0  0  0  0  0  0  0  0  0  0
    1.3292   -1.1496    0.0000 C   0  0  0  0  0  0  0  0  0  0  0  0
    1.9958   -0.0000    0.0000 C   0  0  0  0  0  0  0  0  0  0  0  0
    1.9958   -2.3032    0.0000 C   0  0  0  0  0  0  0  0  0  0  0  0
    3.3250   -0.0000    0.0000 C   0  0  0  0  0  0  0  0  0  0  0  0
    3.3250   -2.3032    0.0000 C   0  0  0  0  0  0  0  0  0  0  0  0
    3.9916   -1.1496    0.0000 C   0  0  0  0  0  0  0  0  0  0  0  0
  1  2  1  0  0  0  0 
  2  3  2  0  0  0  0 
  2  4  1  0  0  0  0 
  3  5  1  0  0  0  0 
  6  4  2  0  0  0  0 
  5  7  2  0  0  0  0 
  7  6  1  0  0  0  0 
M  END
> <Name>
ANILINE

> <Source>
DSSTox2DMolFile

> <Tox>
184.1

> <CAS>
62-53-3

$$$$

  CDK

  5  4  0  0  0  0  0  0  0  0999 V2000
    3.4567   -1.9945    0.0000 C   0  0  0  0  0  0  0  0  0  0  0  0
    2.3056   -1.3308    0.0000 N   0  0  0  0  0  0  0  0  0  0  0  0
    1.1511   -1.9945    0.0000 N   0  0  0  0  0  0  0  0  0  0  0  0
    2.3056   -0.0000    0.0000 C   0  0  0  0  0  0  0  0  0  0  0  0
    0.0000   -1.3308    0.0000 O   0  0  0  0  0  0  0  0  0  0  0  0
  1  2  1  0  0  0  0 
  2  3  1  0  0  0  0 
  2  4  1  0  0  0  0 
  3  5  2  0  0  0  0 
M  END
> <Name>
N-NITROSODIMETHYLAMINE

> <Source>
DSSTox2DMolFile

> <Tox>
154

> <CAS>
62-75-9

$$$$

  CDK

 11 11  0  0  0  0  0  0  0  0999 V2000
    0.0000   -2.3036    0.0000 C   0  0  0  0  0  0  0  0  0  0  0  0
    0.6655   -1.1541    0.0000 C   0  0  0  0  0  0  0  0  0  0  0  0
    0.6655   -3.4577    0.0000 N   0  0  0  0  0  0  0  0  0  0  0  0
    1.9964   -1.1541    0.0000 C   0  0  0  0  0  0  0  0  0  0  0  0
    1.9964   -3.4577    0.0000 C   0  0  0  0  0  0  0  0  0  0  0  0
    0.0000   -4.6072    0.0000 C   0  0  0  0  0  0  0  0  0  0  0  0
    2.6573   -2.3036    0.0000 C   0  0  0  0  0  0  0  0  0  0  0  0
    3.9882   -2.3036    0.0000 C   0  0  0  0  0  0  0  0  0  0  0  0
    4.6537   -3.4577    0.0000 O   0  0  0  0  0  0  0  0  0  0  0  0
    4.6537   -1.1541    0.0000 O   0  0  0  0  0  0  0  0  0  0  0  0
    3.9882   -0.0000    0.0000 C   0  0  0  0  0  0  0  0  0  0  0  0
  1  2  1  0  0  0  0 
  1  3  1  0  0  0  0 
  2  4  1  0  0  0  0 
  5  3  1  0  0  0  0 
  3  6  1  0  0  0  0 
  4  7  2  0  0  0  0 
  7  5  1  0  0  0  0 
  7  8  1  0  0  0  0 
  8  9  2  0  0  0  0 
  8 10  1  0  0  0  0 
 10 11  1  0  0  0  0 
M  END
> <Name>
ARECOLINE

> <Source>
DSSTox2DMolFile

> <Tox>
209

> <CAS>
63-75-2

$$$$

  CDK

  3  2  0  0  0  0  0  0  0  0999 V2000
    2.3030   -0.6656    0.0000 C   0  0  0  0  0  0  0  0  0  0  0  0
    1.1515   -0.0000    0.0000 C   0  0  0  0  0  0  0  0  0  0  0  0
    0.0000   -0.6656    0.0000 O   0  0  0  0  0  0  0  0  0  0  0  0
  1  2  1  0  0  0  0 
  2  3  1  0  0  0  0 
M  END
> <Name>
ETHANOL

> <Source>
DSSTox2DMolFile

> <Tox>
78.2

> <CAS>
64-17-5

$$$$

  CDK

  4  3  0  0  0  0  0  0  0  0999 V2000
    1.9950   -0.0000    0.0000 Cl  0  0  0  0  0  0  0  0  0  0  0  0
    1.3292   -1.1518    0.0000 C   0  0  0  0  0  0  0  0  0  0  0  0
    1.9950   -2.3037    0.0000 Cl  0  0  0  0  0  0  0  0  0  0  0  0
    0.0000   -1.1518    0.0000 Cl  0  0  0  0  0  0  0  0  0  0  0  0
  1  2  1  0  0  0  0 
  2  3  1  0  0  0  0 
  2  4  1  0  0  0  0 
M  END
> <Name>
CHLOROFORM

> <Source>
DSSTox2DMolFile

> <Tox>
61.1

> <CAS>
67-66-3

$$$$

  CDK

 18 19  0  0  0  0  0  0  0  0999 V2000
    3.4540   -0.0000    0.0000 Cl  0  0  0  0  0  0  0  0  0  0  0  0
    4.6054   -0.6632    0.0000 C   0  0  0  0  0  0  0  0  0  0  0  0
    4.6054   -1.9895    0.0000 C   0  0  0  0  0  0  0  0  0  0  0  0
    5.7567   -0.0000    0.0000 Cl  0  0  0  0  0  0  0  0  0  0  0  0
    5.7567   -2.6527    0.0000 C   0  0  0  0  0  0  0  0  0  0  0  0
    3.4540   -2.6527    0.0000 C   0  0  0  0  0  0  0  0  0  0  0  0
    6.9080   -1.9895    0.0000 C   0  0  0  0  0  0  0  0  0  0  0  0
    5.7567   -3.9882    0.0000 C   0  0  0  0  0  0  0  0  0  0  0  0
    3.4540   -3.9882    0.0000 C   0  0  0  0  0  0  0  0  0  0  0  0
    2.3027   -1.9895    0.0000 C   0  0  0  0  0  0  0  0  0  0  0  0
    8.0594   -2.6527    0.0000 C   0  0  0  0  0  0  0  0  0  0  0  0
    6.9080   -4.6514    0.0000 C   0  0  0  0  0  0  0  0  0  0  0  0
    2.3027   -4.6514    0.0000 C   0  0  0  0  0  0  0  0  0  0  0  0
    1.1513   -2.6527    0.0000 C   0  0  0  0  0  0  0  0  0  0  0  0
    8.0594   -3.9882    0.0000 C   0  0  0  0  0  0  0  0  0  0  0  0
    1.1513   -3.9882    0.0000 C   0  0  0  0  0  0  0  0  0  0  0  0
    9.2107   -4.6514    0.0000 Cl  0  0  0  0  0  0  0  0  0  0  0  0
    0.0000   -4.6514    0.0000 Cl  0  0  0  0  0  0  0  0  0  0  0  0
  1  2  1  0  0  0  0 
  2  3  2  0  0  0  0 
  2  4  1  0  0  0  0 
  3  5  1  0  0  0  0 
  3  6  1  0  0  0  0 
  5  7  2  0  0  0  0 
  5  8  1  0  0  0  0 
  6  9  2  0  0  0  0 
  6 10  1  0  0  0  0 
  7 11  1  0  0  0  0 
 12  8  2  0  0  0  0 
  9 13  1  0  0  0  0 
 14 10  2  0  0  0  0 
 11 15  2  0  0  0  0 
 15 12  1  0  0  0  0 
 13 16  2  0  0  0  0 
 16 14  1  0  0  0  0 
 15 17  1  0  0  0  0 
 16 18  1  0  0  0  0 
M  END
> <Name>
P,P'-DDE

> <Source>
DSSTox2DMolFile

> <Tox>
336

> <CAS>
72-55-9

$$$$

  CDK

  3  2  0  0  0  0  0  0  0  0999 V2000
    2.3030   -0.6656    0.0000 C   0  0  0  0  0  0  0  0  0  0  0  0
    1.1515   -0.0000    0.0000 C   0  0  0  0  0  0  0  0  0  0  0  0
    0.0000   -0.6656    0.0000 Cl  0  0  0  0  0  0  0  0  0  0  0  0
  1  2  1  0  0  0  0 
  2  3  1  0  0  0  0 
M  END
> <Name>
CHLOROETHANE

> <Source>
DSSTox2DMolFile

> <Tox>
12.3

> <CAS>
75-00-3

$$$$

  CDK

  3  2  0  0  0  0  0  0  0  0999 V2000
    0.0000   -1.3234    0.0000 C   0  0  0  0  0  0  0  0  0  0  0  0
    1.1652   -1.9782    0.0000 C   0  0  0  0  0  0  0  0  0  0  0  0
    0.0000   -0.0000    0.0000 S   0  0  0  0  0  0  0  0  0  0  0  0
  1  2  1  0  0  0  0 
  1  3  1  0  0  0  0 
M  END
> <Name>
ETHYL MERCAPTAN

> <Source>
DSSTox2DMolFile

> <Tox>
35.1

> <CAS>
75-08-1

$$$$

  CDK

  4  3  0  0  0  0  0  0  0  0999 V2000
    1.9950   -0.0000    0.0000 Cl  0  0  0  0  0  0  0  0  0  0  0  0
    1.3292   -1.1518    0.0000 C   0  0  0  0  0  0  0  0  0  0  0  0
    1.9950   -2.3037    0.0000 Cl  0  0  0  0  0  0  0  0  0  0  0  0
    0.0000   -1.1518    0.0000 Br  0  0  0  0  0  0  0  0  0  0  0  0
  1  2  1  0  0  0  0 
  2  3  1  0  0  0  0 
  2  4  1  0  0  0  0 
M  END
> <Name>
BROMODICHLOROMETHANE

> <Source>
DSSTox2DMolFile

> <Tox>
90

> <CAS>
75-27-4

$$$$

  CDK

  4  3  0  0  0  0  0  0  0  0999 V2000
    0.8456    0.9948    0.0000 C   0  0  0  0  0  0  0  0  0  0  0  0
    0.0000    1.4922    0.0000 C   0  0  0  0  0  0  0  0  0  0  0  0
    1.7409    1.4922    0.0000 C   0  0  0  0  0  0  0  0  0  0  0  0
    0.8456    0.0000    0.0000 I   0  0  0  0  0  0  0  0  0  0  0  0
  1  2  1  0  0  0  0 
  1  3  1  0  0  0  0 
  1  4  1  0  0  0  0 
M  END
> <Name>
2-IODOPROPANE

> <Source>
NIST2DMolFile

> <Tox>
89.5

> <CAS>
75-30-9

$$$$

  CDK

  4  3  0  0  0  0  0  0  0  0999 V2000
    2.3050   -1.9938    0.0000 Cl  0  0  0  0  0  0  0  0  0  0  0  0
    1.1571   -1.3323    0.0000 C   0  0  0  0  0  0  0  0  0  0  0  0
    1.1571   -0.0000    0.0000 O   0  0  0  0  0  0  0  0  0  0  0  0
    0.0000   -1.9938    0.0000 C   0  0  0  0  0  0  0  0  0  0  0  0
  1  2  1  0  0  0  0 
  3  2  2  0  0  0  0 
  2  4  1  0  0  0  0 
M  END
> <Name>
ACETYLCHLORIDE

> <Source>
DSSTox2DMolFile

> <Tox>
50.7

> <CAS>
75-36-5

$$$$

  CDK

  4  3  0  0  0  0  0  0  0  0999 V2000
    1.1640   -1.3161    0.0000 C   0  0  0  0  0  0  0  0  0  0  0  0
    1.1640   -0.0000    0.0000 O   0  0  0  0  0  0  0  0  0  0  0  0
    0.0000   -1.9868    0.0000 Cl  0  0  0  0  0  0  0  0  0  0  0  0
    2.3049   -2.0006    0.0000 Cl  0  0  0  0  0  0  0  0  0  0  0  0
  1  2  2  0  0  0  0 
  1  3  1  0  0  0  0 
  1  4  1  0  0  0  0 
M  END
> <Name>
PHOSGENE

> <Source>
DSSTox2DMolFile

> <Tox>
8.2

> <CAS>
75-44-5

$$$$

  CDK

  4  3  0  0  0  0  0  0  0  0999 V2000
    1.9950   -0.0000    0.0000 I   0  0  0  0  0  0  0  0  0  0  0  0
    1.3292   -1.1518    0.0000 C   0  0  0  0  0  0  0  0  0  0  0  0
    1.9950   -2.3037    0.0000 I   0  0  0  0  0  0  0  0  0  0  0  0
    0.0000   -1.1518    0.0000 I   0  0  0  0  0  0  0  0  0  0  0  0
  1  2  1  0  0  0  0 
  2  3  1  0  0  0  0 
  2  4  1  0  0  0  0 
M  END
> <Name>
IODOFORM

> <Source>
DSSTox2DMolFile

> <Tox>
218

> <CAS>
75-47-8

$$$$

  CDK

  4  4  0  0  0  0  0  0  0  0999 V2000
    0.0000   -0.6651    0.0000 C   0  0  0  0  0  0  0  0  0  0  0  0
    1.3302   -0.6651    0.0000 C   0  0  0  0  0  0  0  0  0  0  0  0
    2.4817   -0.0000    0.0000 C   0  0  0  0  0  0  0  0  0  0  0  0
    2.4817   -1.3302    0.0000 O   0  0  0  0  0  0  0  0  0  0  0  0
  1  2  1  0  0  0  0 
  2  3  1  0  0  0  0 
  2  4  1  0  0  0  0 
  3  4  1  0  0  0  0 
M  END
> <Name>
PROPYLENE OXIDE

> <Source>
DSSTox2DMolFile

> <Tox>
35

> <CAS>
75-56-9

$$$$

  CDK

  5  4  0  0  0  0  0  0  0  0999 V2000
    1.3300   -2.6600    0.0000 F   0  0  0  0  0  0  0  0  0  0  0  0
    1.3300   -1.3300    0.0000 C   0  0  0  0  0  0  0  0  0  0  0  0
    0.0000   -1.3300    0.0000 Cl  0  0  0  0  0  0  0  0  0  0  0  0
    1.3300   -0.0000    0.0000 Cl  0  0  0  0  0  0  0  0  0  0  0  0
    2.6600   -1.3300    0.0000 Cl  0  0  0  0  0  0  0  0  0  0  0  0
  1  2  1  0  0  0  0 
  2  3  1  0  0  0  0 
  2  4  1  0  0  0  0 
  2  5  1  0  0  0  0 
M  END
> <Name>
TRICHLOROFLUOROMETHANE

> <Source>
DSSTox2DMolFile

> <Tox>
23.7

> <CAS>
75-69-4

$$$$

  CDK

  6  5  0  0  0  0  0  0  0  0999 V2000
    3.4542   -1.1537    0.0000 C   0  0  0  0  0  0  0  0  0  0  0  0
    2.3040   -0.4870    0.0000 C   0  0  0  0  0  0  0  0  0  0  0  0
    1.1503   -1.1537    0.0000 C   0  0  0  0  0  0  0  0  0  0  0  0
    1.8169   -2.3040    0.0000 C   0  0  0  0  0  0  0  0  0  0  0  0
    0.0000   -1.8169    0.0000 C   0  0  0  0  0  0  0  0  0  0  0  0
    0.4870   -0.0000    0.0000 C   0  0  0  0  0  0  0  0  0  0  0  0
  1  2  1  0  0  0  0 
  2  3  1  0  0  0  0 
  3  4  1  0  0  0  0 
  3  5  1  0  0  0  0 
  3  6  1  0  0  0  0 
M  END
> <Name>
2,2-DIMETHYLBUTANE

> <Source>
DSSTox2DMolFile

> <Tox>
49.7

> <CAS>
75-83-2

$$$$

  CDK

  6  5  0  0  0  0  0  0  0  0999 V2000
    1.1503   -1.1537    0.0000 C   0  0  0  0  0  0  0  0  0  0  0  0
    0.4870   -0.0000    0.0000 F   0  0  0  0  0  0  0  0  0  0  0  0
    1.8169   -2.3040    0.0000 F   0  0  0  0  0  0  0  0  0  0  0  0
    0.0000   -1.8169    0.0000 F   0  0  0  0  0  0  0  0  0  0  0  0
    2.3040   -0.4870    0.0000 C   0  0  0  0  0  0  0  0  0  0  0  0
    3.4542   -1.1537    0.0000 O   0  0  0  0  0  0  0  0  0  0  0  0
  1  2  1  0  0  0  0 
  1  3  1  0  0  0  0 
  1  4  1  0  0  0  0 
  1  5  1  0  0  0  0 
  5  6  1  0  0  0  0 
M  END
> <Name>
2,2,2-TRIFLUOROETHANOL

> <Source>
DSSTox2DMolFile

> <Tox>
74

> <CAS>
75-89-8

$$$$

  CDK

  7  6  0  0  0  0  0  0  0  0999 V2000
    1.1587   -2.0001    0.0000 C   0  0  0  0  0  0  0  0  0  0  0  0
    2.3036   -1.3380    0.0000 C   0  0  0  0  0  0  0  0  0  0  0  0
    1.8208   -3.1588    0.0000 Cl  0  0  0  0  0  0  0  0  0  0  0  0
    0.0000   -2.6760    0.0000 Cl  0  0  0  0  0  0  0  0  0  0  0  0
    0.5000   -0.8552    0.0000 Cl  0  0  0  0  0  0  0  0  0  0  0  0
    3.4485   -2.0001    0.0000 O   0  0  0  0  0  0  0  0  0  0  0  0
    2.3036   -0.0000    0.0000 Cl  0  0  0  0  0  0  0  0  0  0  0  0
  1  2  1  0  0  0  0 
  1  3  1  0  0  0  0 
  1  4  1  0  0  0  0 
  1  5  1  0  0  0  0 
  2  6  2  0  0  0  0 
  2  7  1  0  0  0  0 
M  END
> <Name>
TRICHLORACETYLCHLORIDE

> <Source>
DSSTox2DMolFile

> <Tox>
117.9

> <CAS>
76-02-8

$$$$

  CDK

  7  6  0  0  0  0  0  0  0  0999 V2000
    2.6608   -1.9956    0.0000 Cl  0  0  0  0  0  0  0  0  0  0  0  0
    1.3304   -1.9956    0.0000 C   0  0  0  0  0  0  0  0  0  0  0  0
    1.3304   -0.6652    0.0000 C   0  0  0  0  0  0  0  0  0  0  0  0
    1.3304   -3.3260    0.0000 Cl  0  0  0  0  0  0  0  0  0  0  0  0
    0.0000   -1.9956    0.0000 Cl  0  0  0  0  0  0  0  0  0  0  0  0
    0.1796   -0.0000    0.0000 O   0  0  0  0  0  0  0  0  0  0  0  0
    2.4812   -0.0000    0.0000 O   0  0  0  0  0  0  0  0  0  0  0  0
  1  2  1  0  0  0  0 
  2  3  1  0  0  0  0 
  2  4  1  0  0  0  0 
  2  5  1  0  0  0  0 
  3  6  2  0  0  0  0 
  3  7  1  0  0  0  0 
M  END
> <Name>
TRICHLOROACETIC ACID

> <Source>
DSSTox2DMolFile

> <Tox>
196.5

> <CAS>
76-03-9

$$$$

  CDK

  8  7  0  0  0  0  0  0  0  0999 V2000
    1.3340   -1.3340    0.0000 C   0  0  0  0  0  0  0  0  0  0  0  0
    1.3340   -2.6639    0.0000 C   0  0  0  0  0  0  0  0  0  0  0  0
    1.3340   -0.0000    0.0000 Cl  0  0  0  0  0  0  0  0  0  0  0  0
    2.6639   -1.3340    0.0000 F   0  0  0  0  0  0  0  0  0  0  0  0
    0.0000   -1.3180    0.0000 F   0  0  0  0  0  0  0  0  0  0  0  0
    0.0000   -2.6480    0.0000 Cl  0  0  0  0  0  0  0  0  0  0  0  0
    2.6639   -2.6639    0.0000 F   0  0  0  0  0  0  0  0  0  0  0  0
    1.3340   -3.9820    0.0000 F   0  0  0  0  0  0  0  0  0  0  0  0
  1  2  1  0  0  0  0 
  1  3  1  0  0  0  0 
  1  4  1  0  0  0  0 
  1  5  1  0  0  0  0 
  2  6  1  0  0  0  0 
  2  7  1  0  0  0  0 
  2  8  1  0  0  0  0 
M  END
> <Name>
1,2-DICHLOROTETRAFLUOROETHANE

> <Source>
DSSTox2DMolFile

> <Tox>
3.8

> <CAS>
76-14-2

$$$$

  CDK

 11 10  0  0  0  0  0  0  0  0999 V2000
    3.0882    0.9804    0.0000 C   0  0  0  0  0  0  0  0  0  0  0  0
    2.1078    0.9804    0.0000 C   0  0  0  0  0  0  0  0  0  0  0  0
    3.0882    0.0000    0.0000 F   0  0  0  0  0  0  0  0  0  0  0  0
    3.0882    1.9608    0.0000 F   0  0  0  0  0  0  0  0  0  0  0  0
    4.1176    0.9804    0.0000 F   0  0  0  0  0  0  0  0  0  0  0  0
    1.1275    0.9804    0.0000 C   0  0  0  0  0  0  0  0  0  0  0  0
    2.1078    0.0000    0.0000 F   0  0  0  0  0  0  0  0  0  0  0  0
    2.1078    1.9608    0.0000 F   0  0  0  0  0  0  0  0  0  0  0  0
    1.1275    1.9608    0.0000 F   0  0  0  0  0  0  0  0  0  0  0  0
    1.1275    0.0000    0.0000 F   0  0  0  0  0  0  0  0  0  0  0  0
    0.0000    0.9804    0.0000 F   0  0  0  0  0  0  0  0  0  0  0  0
  1  2  1  0  0  0  0 
  1  3  1  0  0  0  0 
  1  4  1  0  0  0  0 
  1  5  1  0  0  0  0 
  2  6  1  0  0  0  0 
  2  7  1  0  0  0  0 
  2  8  1  0  0  0  0 
  6  9  1  0  0  0  0 
  6 10  1  0  0  0  0 
  6 11  1  0  0  0  0 
M  END
> <Name>
OCTAFLUOROPROPANE

> <Source>
NIST2DMolFile

> <Tox>
-36.6

> <CAS>
76-19-7

$$$$

  CDK

  8  7  0  0  0  0  0  0  0  0999 V2000
    0.5071    1.4198    0.0000 C   0  0  0  0  0  0  0  0  0  0  0  0
    0.0000    2.3325    0.0000 F   0  0  0  0  0  0  0  0  0  0  0  0
    0.0000    0.6085    0.0000 F   0  0  0  0  0  0  0  0  0  0  0  0
    1.4705    1.4198    0.0000 C   0  0  0  0  0  0  0  0  0  0  0  0
    1.4705    0.5071    0.0000 C   0  0  0  0  0  0  0  0  0  0  0  0
    1.4705    2.4339    0.0000 F   0  0  0  0  0  0  0  0  0  0  0  0
    2.5353    1.4198    0.0000 F   0  0  0  0  0  0  0  0  0  0  0  0
    2.3832    0.0000    0.0000 O   0  0  0  0  0  0  0  0  0  0  0  0
  1  2  1  0  0  0  0 
  1  3  1  0  0  0  0 
  1  4  1  0  0  0  0 
  4  5  1  0  0  0  0 
  4  6  1  0  0  0  0 
  4  7  1  0  0  0  0 
  5  8  1  0  0  0  0 
M  END
> <Name>
2,2,3,3-TETRAFLUOROPROPANOL

> <Source>
NIST2DMolFile

> <Tox>
109.5

> <CAS>
76-37-9

$$$$

  CDK

 11 11  0  0  0  0  0  0  0  0999 V2000
    3.4265   -0.1676    0.0000 Cl  0  0  0  0  0  0  0  0  0  0  0  0
    3.2868   -1.4898    0.0000 C   0  0  0  0  0  0  0  0  0  0  0  0
    3.4265   -2.8119    0.0000 C   0  0  0  0  0  0  0  0  0  0  0  0
    1.9879   -1.2151    0.0000 C   0  0  0  0  0  0  0  0  0  0  0  0
    4.6183   -1.4898    0.0000 Cl  0  0  0  0  0  0  0  0  0  0  0  0
    2.2114   -3.3566    0.0000 C   0  0  0  0  0  0  0  0  0  0  0  0
    4.5810   -3.4777    0.0000 Cl  0  0  0  0  0  0  0  0  0  0  0  0
    1.3222   -2.3650    0.0000 C   0  0  0  0  0  0  0  0  0  0  0  0
    1.4479   -0.0000    0.0000 Cl  0  0  0  0  0  0  0  0  0  0  0  0
    1.9367   -4.6555    0.0000 Cl  0  0  0  0  0  0  0  0  0  0  0  0
    0.0000   -2.5047    0.0000 Cl  0  0  0  0  0  0  0  0  0  0  0  0
  1  2  1  0  0  0  0 
  2  3  1  0  0  0  0 
  2  4  1  0  0  0  0 
  2  5  1  0  0  0  0 
  3  6  2  0  0  0  0 
  3  7  1  0  0  0  0 
  8  4  2  0  0  0  0 
  4  9  1  0  0  0  0 
  6  8  1  0  0  0  0 
  6 10  1  0  0  0  0 
  8 11  1  0  0  0  0 
M  END
> <Name>
HEXACHLOROCYCLOPENTADIENE

> <Source>
DSSTox2DMolFile

> <Tox>
239

> <CAS>
77-47-4

$$$$

  CDK

 16 15  0  0  0  0  0  0  0  0999 V2000
    1.3141    0.2808    0.2337 O   0  0  0  0  0  0  0  0  0  0  0  0
    0.4821   -0.8578    0.5174 C   0  0  0  0  0  0  0  0  0  0  0  0
    2.6083   -0.0089   -0.0819 C   0  0  0  0  0  0  0  0  0  0  0  0
   -0.9358   -0.3150    0.8192 C   0  0  0  0  0  0  0  0  0  0  0  0
    1.0975   -1.5161    1.7585 C   0  0  0  0  0  0  0  0  0  0  0  0
    0.4779   -1.7214   -0.7271 C   0  0  0  0  0  0  0  0  0  0  0  0
    3.1019   -1.1275   -0.1406 O   0  0  0  0  0  0  0  0  0  0  0  0
    3.3597    1.2851   -0.3415 C   0  0  0  0  0  0  0  0  0  0  0  0
   -1.5170    0.6158   -0.2507 C   0  0  0  0  0  0  0  0  0  0  0  0
    0.4048   -3.0565   -0.7925 C   0  0  0  0  0  0  0  0  0  0  0  0
    2.7233    2.0234   -1.5130 C   0  0  0  0  0  0  0  0  0  0  0  0
    3.3803    2.1594    0.9096 C   0  0  0  0  0  0  0  0  0  0  0  0
   -2.8615    1.1439    0.1678 C   0  0  0  0  0  0  0  0  0  0  0  0
   -4.0691    0.6022   -0.0802 C   0  0  0  0  0  0  0  0  0  0  0  0
   -5.3816    1.1811    0.3673 C   0  0  0  0  0  0  0  0  0  0  0  0
   -4.1849   -0.6884   -0.8461 C   0  0  0  0  0  0  0  0  0  0  0  0
  1  2  1  0  0  0  0 
  1  3  1  0  0  0  0 
  2  4  1  0  0  0  0 
  2  5  1  0  0  0  0 
  2  6  1  0  0  0  0 
  7  3  2  0  0  0  0 
  8  3  1  0  0  0  0 
  4  9  1  0  0  0  0 
  6 10  2  0  0  0  0 
  8 11  1  0  0  0  0 
  8 12  1  0  0  0  0 
  9 13  1  0  0  0  0 
 13 14  2  0  0  0  0 
 14 15  1  0  0  0  0 
 14 16  1  0  0  0  0 
M  END
> <Name>
3,7-Dimethyl-1,6-octadien-3-yl isobutyrate

> <Source>
Chemidplus3DMolFile

> <Tox>
229

> <CAS>
78-35-3

$$$$

  CDK

 10  9  0  0  0  0  0  0  0  0999 V2000
    0.0000   -3.1483    0.0000 C   0  0  0  0  0  0  0  0  0  0  0  0
    1.3295   -3.1483    0.0000 C   0  0  0  0  0  0  0  0  0  0  0  0
    1.9943   -1.9943    0.0000 O   0  0  0  0  0  0  0  0  0  0  0  0
    3.3238   -1.9943    0.0000 P   0  0  0  0  0  0  0  0  0  0  0  0
    3.3238   -3.3238    0.0000 O   0  0  0  0  0  0  0  0  0  0  0  0
    4.6533   -1.9943    0.0000 C   0  0  0  0  0  0  0  0  0  0  0  0
    3.3238   -0.6648    0.0000 O   0  0  0  0  0  0  0  0  0  0  0  0
    5.3180   -3.1483    0.0000 C   0  0  0  0  0  0  0  0  0  0  0  0
    2.1751   -0.0000    0.0000 C   0  0  0  0  0  0  0  0  0  0  0  0
    1.0211   -0.6648    0.0000 C   0  0  0  0  0  0  0  0  0  0  0  0
  1  2  1  0  0  0  0 
  2  3  1  0  0  0  0 
  3  4  1  0  0  0  0 
  4  5  2  0  0  0  0 
  4  6  1  0  0  0  0 
  4  7  1  0  0  0  0 
  6  8  1  0  0  0  0 
  7  9  1  0  0  0  0 
  9 10  1  0  0  0  0 
M  END
> <Name>
Phosphonic acid, ethyl-, diethyl ester

> <Source>
DSSTox2DMolFile

> <Tox>
198

> <CAS>
78-38-6

$$$$

  CDK

 11 10  0  0  0  0  0  0  0  0999 V2000
    1.4705    2.5354    0.0000 O   0  0  0  0  0  0  0  0  0  0  0  0
    2.5354    2.5354    0.0000 C   0  0  0  0  0  0  0  0  0  0  0  0
    1.0142    3.3974    0.0000 C   0  0  0  0  0  0  0  0  0  0  0  0
    3.5496    2.5354    0.0000 O   0  0  0  0  0  0  0  0  0  0  0  0
    2.5354    1.5212    0.0000 O   0  0  0  0  0  0  0  0  0  0  0  0
    2.5354    3.4989    0.0000 C   0  0  0  0  0  0  0  0  0  0  0  0
    0.0000    3.3974    0.0000 C   0  0  0  0  0  0  0  0  0  0  0  0
    4.0567    3.3974    0.0000 C   0  0  0  0  0  0  0  0  0  0  0  0
    3.3974    0.9635    0.0000 C   0  0  0  0  0  0  0  0  0  0  0  0
    5.0201    3.3974    0.0000 C   0  0  0  0  0  0  0  0  0  0  0  0
    3.3974    0.0000    0.0000 C   0  0  0  0  0  0  0  0  0  0  0  0
  1  2  1  0  0  0  0 
  1  3  1  0  0  0  0 
  2  4  1  0  0  0  0 
  2  5  1  0  0  0  0 
  2  6  1  0  0  0  0 
  3  7  1  0  0  0  0 
  4  8  1  0  0  0  0 
  5  9  1  0  0  0  0 
  8 10  1  0  0  0  0 
  9 11  1  0  0  0  0 
M  END
> <Name>
Ethane, 1,1,1-triethoxy-

> <Source>
NIST2DMolFile

> <Tox>
145

> <CAS>
78-39-7

$$$$

  CDK

 11 10  0  0  0  0  0  0  0  0999 V2000
    2.7907   -1.5055    0.0000 O   0  0  0  0  0  0  0  0  0  0  0  0
    3.4577   -2.6622    0.0000 P   0  0  0  0  0  0  0  0  0  0  0  0
    4.6083   -1.9951    0.0000 O   0  0  0  0  0  0  0  0  0  0  0  0
    4.1248   -3.8127    0.0000 O   0  0  0  0  0  0  0  0  0  0  0  0
    2.3072   -3.3231    0.0000 O   0  0  0  0  0  0  0  0  0  0  0  0
    4.6083   -0.6609    0.0000 C   0  0  0  0  0  0  0  0  0  0  0  0
    5.4528   -3.8127    0.0000 C   0  0  0  0  0  0  0  0  0  0  0  0
    1.1505   -2.6622    0.0000 C   0  0  0  0  0  0  0  0  0  0  0  0
    3.4577   -0.0000    0.0000 C   0  0  0  0  0  0  0  0  0  0  0  0
    6.1199   -2.6622    0.0000 C   0  0  0  0  0  0  0  0  0  0  0  0
    0.0000   -3.3231    0.0000 C   0  0  0  0  0  0  0  0  0  0  0  0
  1  2  2  0  0  0  0 
  2  3  1  0  0  0  0 
  2  4  1  0  0  0  0 
  2  5  1  0  0  0  0 
  3  6  1  0  0  0  0 
  4  7  1  0  0  0  0 
  5  8  1  0  0  0  0 
  6  9  1  0  0  0  0 
  7 10  1  0  0  0  0 
  8 11  1  0  0  0  0 
M  END
> <Name>
TRIETHYL PHOSPHATE

> <Source>
DSSTox2DMolFile

> <Tox>
215.5

> <CAS>
78-40-0

$$$$

  CDK

 12 11  0  0  0  0  0  0  0  0999 V2000
    6.0717    1.8368    0.0000 C   0  0  0  0  0  0  0  0  0  0  0  0
    5.5615    0.9694    0.0000 C   0  0  0  0  0  0  0  0  0  0  0  0
    4.5410    0.9694    0.0000 C   0  0  0  0  0  0  0  0  0  0  0  0
    4.5410    0.0000    0.0000 O   0  0  0  0  0  0  0  0  0  0  0  0
    4.5410    1.9899    0.0000 C   0  0  0  0  0  0  0  0  0  0  0  0
    3.5206    0.9694    0.0000 C   0  0  0  0  0  0  0  0  0  0  0  0
    2.5511    0.9694    0.0000 C   0  0  0  0  0  0  0  0  0  0  0  0
    1.5307    0.9694    0.0000 C   0  0  0  0  0  0  0  0  0  0  0  0
    1.5307    0.0000    0.0000 O   0  0  0  0  0  0  0  0  0  0  0  0
    1.5307    1.9899    0.0000 C   0  0  0  0  0  0  0  0  0  0  0  0
    0.5102    0.9694    0.0000 C   0  0  0  0  0  0  0  0  0  0  0  0
    0.0000    0.1531    0.0000 C   0  0  0  0  0  0  0  0  0  0  0  0
  1  2  1  0  0  0  0 
  2  3  1  0  0  0  0 
  3  4  1  0  0  0  0 
  3  5  1  0  0  0  0 
  3  6  1  0  0  0  0 
  6  7  3  0  0  0  0 
  7  8  1  0  0  0  0 
  8  9  1  0  0  0  0 
  8 10  1  0  0  0  0 
  8 11  1  0  0  0  0 
 11 12  1  0  0  0  0 
M  END
> <Name>
4-Octyne-3,6-diol, 3,6-dimethyl-

> <Source>
NIST2DMolFile

> <Tox>
135

> <CAS>
78-66-0

$$$$

  CDK

  5  4  0  0  0  0  0  0  0  0999 V2000
    1.9991    1.7492    0.0000 Br  0  0  0  0  0  0  0  0  0  0  0  0
    1.4993    0.8996    0.0000 C   0  0  0  0  0  0  0  0  0  0  0  0
    0.4998    0.8996    0.0000 C   0  0  0  0  0  0  0  0  0  0  0  0
    0.0000    1.7492    0.0000 C   0  0  0  0  0  0  0  0  0  0  0  0
    0.0000    0.0000    0.0000 C   0  0  0  0  0  0  0  0  0  0  0  0
  1  2  1  0  0  0  0 
  2  3  1  0  0  0  0 
  3  4  1  0  0  0  0 
  3  5  1  0  0  0  0 
M  END
> <Name>
ISOBUTYL BROMIDE

> <Source>
NIST2DMolFile

> <Tox>
91.1

> <CAS>
78-77-3

$$$$

  CDK

  5  4  0  0  0  0  0  0  0  0999 V2000
    3.4567   -1.9945    0.0000 C   0  0  0  0  0  0  0  0  0  0  0  0
    2.3056   -1.3308    0.0000 C   0  0  0  0  0  0  0  0  0  0  0  0
    1.1511   -1.9945    0.0000 C   0  0  0  0  0  0  0  0  0  0  0  0
    2.3056   -0.0000    0.0000 O   0  0  0  0  0  0  0  0  0  0  0  0
    0.0000   -1.3308    0.0000 C   0  0  0  0  0  0  0  0  0  0  0  0
  1  2  1  0  0  0  0 
  2  3  1  0  0  0  0 
  2  4  2  0  0  0  0 
  3  5  1  0  0  0  0 
M  END
> <Name>
2-BUTANONE

> <Source>
DSSTox2DMolFile

> <Tox>
79.5

> <CAS>
78-93-3

$$$$

  CDK

  5  4  0  0  0  0  0  0  0  0999 V2000
    2.3056   -0.0000    0.0000 O   0  0  0  0  0  0  0  0  0  0  0  0
    2.3056   -1.3308    0.0000 C   0  0  0  0  0  0  0  0  0  0  0  0
    3.4567   -1.9945    0.0000 C   0  0  0  0  0  0  0  0  0  0  0  0
    1.1511   -1.9945    0.0000 C   0  0  0  0  0  0  0  0  0  0  0  0
    0.0000   -1.3308    0.0000 N   0  0  0  0  0  0  0  0  0  0  0  0
  1  2  1  0  0  0  0 
  2  3  1  0  0  0  0 
  2  4  1  0  0  0  0 
  4  5  1  0  0  0  0 
M  END
> <Name>
1-AMINO-2-PROPANOL

> <Source>
DSSTox2DMolFile

> <Tox>
160

> <CAS>
78-96-6

$$$$

  CDK

  5  4  0  0  0  0  0  0  0  0999 V2000
    1.9939   -3.4556    0.0000 C   0  0  0  0  0  0  0  0  0  0  0  0
    1.3304   -2.3049    0.0000 C   0  0  0  0  0  0  0  0  0  0  0  0
    0.0000   -2.3049    0.0000 O   0  0  0  0  0  0  0  0  0  0  0  0
    1.9939   -1.1507    0.0000 C   0  0  0  0  0  0  0  0  0  0  0  0
    2.6608   -0.0000    0.0000 N   0  0  0  0  0  0  0  0  0  0  0  0
  1  2  1  0  0  0  0 
  2  3  1  0  0  0  0 
  2  4  1  0  0  0  0 
  4  5  3  0  0  0  0 
M  END
> <Name>
2-HYDROXYPROPANENITRILE

> <Source>
DSSTox2DMolFile

> <Tox>
183

> <CAS>
78-97-7

$$$$

  CDK

  5  4  0  0  0  0  0  0  0  0999 V2000
    3.4567   -1.9945    0.0000 C   0  0  0  0  0  0  0  0  0  0  0  0
    2.3056   -1.3308    0.0000 C   0  0  0  0  0  0  0  0  0  0  0  0
    1.1511   -1.9945    0.0000 C   0  0  0  0  0  0  0  0  0  0  0  0
    2.3056   -0.0000    0.0000 O   0  0  0  0  0  0  0  0  0  0  0  0
    0.0000   -1.3308    0.0000 O   0  0  0  0  0  0  0  0  0  0  0  0
  1  2  1  0  0  0  0 
  2  3  1  0  0  0  0 
  2  4  2  0  0  0  0 
  3  5  2  0  0  0  0 
M  END
> <Name>
METHYL GLYOXAL

> <Source>
DSSTox2DMolFile

> <Tox>
72

> <CAS>
78-98-8

$$$$

  CDK

  5  4  0  0  0  0  0  0  0  0999 V2000
    0.0037    0.1902   -0.4147 C   0  0  0  0  0  0  0  0  0  0  0  0
   -0.9292    1.1147    0.3334 C   0  0  0  0  0  0  0  0  0  0  0  0
    1.6791    0.5605    0.0177 Cl  0  0  0  0  0  0  0  0  0  0  0  0
   -0.2866   -1.4891    0.0628 Cl  0  0  0  0  0  0  0  0  0  0  0  0
   -2.3635    0.9306   -0.1070 C   0  0  0  0  0  0  0  0  0  0  0  0
  1  2  1  0  0  0  0 
  1  3  1  0  0  0  0 
  1  4  1  0  0  0  0 
  2  5  1  0  0  0  0 
M  END
> <Name>
1,1-Dichloropropane

> <Source>
DougDB3DMolFile

> <Tox>
88.1

> <CAS>
78-99-9

$$$$

  CDK

  5  4  0  0  0  0  0  0  0  0999 V2000
    2.1563    2.4530    1.2204 C   0  0  0  0  0  0  0  0  0  0  0  0
    0.8789    1.7142    1.5534 C   0  0  0  0  0  0  0  0  0  0  0  0
    3.3793    1.6408    1.5956 C   0  0  0  0  0  0  0  0  0  0  0  0
    3.7376    0.5621    0.7850 N   0  0  0  0  0  0  0  0  0  0  0  0
    4.0978    1.8651    2.5635 O   0  0  0  0  0  0  0  0  0  0  0  0
  1  2  1  0  0  0  0 
  1  3  1  0  0  0  0 
  3  4  1  0  0  0  0 
  3  5  2  0  0  0  0 
M  END
> <Name>
PROPRIONAMIDE

> <Source>
NIST3DMolFile

> <Tox>
213

> <CAS>
79-05-0

$$$$

  CDK

  5  4  0  0  0  0  0  0  0  0999 V2000
    3.4567   -1.9945    0.0000 N   0  0  0  0  0  0  0  0  0  0  0  0
    2.3056   -1.3308    0.0000 C   0  0  0  0  0  0  0  0  0  0  0  0
    2.3056   -0.0000    0.0000 O   0  0  0  0  0  0  0  0  0  0  0  0
    1.1511   -1.9945    0.0000 C   0  0  0  0  0  0  0  0  0  0  0  0
    0.0000   -1.3308    0.0000 C   0  0  0  0  0  0  0  0  0  0  0  0
  1  2  1  0  0  0  0 
  2  3  2  0  0  0  0 
  2  4  1  0  0  0  0 
  4  5  2  0  0  0  0 
M  END
> <Name>
ACRYLAMIDE

> <Source>
DSSTox2DMolFile

> <Tox>
192.6

> <CAS>
79-06-1

$$$$

  CDK

  6  5  0  0  0  0  0  0  0  0999 V2000
    1.5873    0.8929    0.0000 C   0  0  0  0  0  0  0  0  0  0  0  0
    0.5456    0.8929    0.0000 C   0  0  0  0  0  0  0  0  0  0  0  0
    2.0834    0.0496    0.0000 Cl  0  0  0  0  0  0  0  0  0  0  0  0
    2.0338    1.7361    0.0000 O   0  0  0  0  0  0  0  0  0  0  0  0
    0.0000    1.7361    0.0000 C   0  0  0  0  0  0  0  0  0  0  0  0
    0.0496    0.0000    0.0000 C   0  0  0  0  0  0  0  0  0  0  0  0
  1  2  1  0  0  0  0 
  1  3  1  0  0  0  0 
  1  4  2  0  0  0  0 
  2  5  1  0  0  0  0 
  2  6  1  0  0  0  0 
M  END
> <Name>
Propanoyl chloride, 2-methyl-

> <Source>
NIST2DMolFile

> <Tox>
92

> <CAS>
79-30-1

$$$$

  CDK

  6  5  0  0  0  0  0  0  0  0999 V2000
    1.3307   -0.0000    0.0000 O   0  0  0  0  0  0  0  0  0  0  0  0
    1.9943   -1.1509    0.0000 C   0  0  0  0  0  0  0  0  0  0  0  0
    1.3307   -2.3053    0.0000 C   0  0  0  0  0  0  0  0  0  0  0  0
    3.3250   -1.1509    0.0000 Cl  0  0  0  0  0  0  0  0  0  0  0  0
    1.9943   -3.4563    0.0000 Cl  0  0  0  0  0  0  0  0  0  0  0  0
    0.0000   -2.3053    0.0000 Cl  0  0  0  0  0  0  0  0  0  0  0  0
  1  2  2  0  0  0  0 
  2  3  1  0  0  0  0 
  2  4  1  0  0  0  0 
  3  5  1  0  0  0  0 
  3  6  1  0  0  0  0 
M  END
> <Name>
DICHLOROACETYL CHLORIDE

> <Source>
DSSTox2DMolFile

> <Tox>
108

> <CAS>
79-36-7

$$$$

  CDK

 10  9  0  0  0  0  0  0  0  0999 V2000
    1.7939    1.2814    0.0000 C   0  0  0  0  0  0  0  0  0  0  0  0
    1.7939    2.3577    0.0000 O   0  0  0  0  0  0  0  0  0  0  0  0
    2.6140    0.8201    0.0000 C   0  0  0  0  0  0  0  0  0  0  0  0
    0.9226    0.8201    0.0000 C   0  0  0  0  0  0  0  0  0  0  0  0
    3.1265    1.6914    0.0000 F   0  0  0  0  0  0  0  0  0  0  0  0
    3.4853    0.3075    0.0000 F   0  0  0  0  0  0  0  0  0  0  0  0
    2.1527    0.0000    0.0000 F   0  0  0  0  0  0  0  0  0  0  0  0
    1.3839    0.0000    0.0000 F   0  0  0  0  0  0  0  0  0  0  0  0
    0.0000    0.3075    0.0000 Cl  0  0  0  0  0  0  0  0  0  0  0  0
    0.3588    1.6914    0.0000 F   0  0  0  0  0  0  0  0  0  0  0  0
  1  2  2  0  0  0  0 
  1  3  1  0  0  0  0 
  1  4  1  0  0  0  0 
  3  5  1  0  0  0  0 
  3  6  1  0  0  0  0 
  3  7  1  0  0  0  0 
  4  8  1  0  0  0  0 
  4  9  1  0  0  0  0 
  4 10  1  0  0  0  0 
M  END
> <Name>
CHLOROPENTAFLUOROACETONE

> <Source>
NIST2DMolFile

> <Tox>
8

> <CAS>
79-53-8

$$$$

  CDK

 10 11  0  0  0  0  0  0  0  0999 V2000
    1.3183   -0.6515    0.0000 C   0  0  0  0  0  0  0  0  0  0  0  0
    2.6061   -1.1087    0.0000 C   0  0  0  0  0  0  0  0  0  0  0  0
    0.0000   -0.9944    0.0000 C   0  0  0  0  0  0  0  0  0  0  0  0
    1.7755   -0.0000    0.0000 C   0  0  0  0  0  0  0  0  0  0  0  0
    2.5718   -2.3470    0.0000 C   0  0  0  0  0  0  0  0  0  0  0  0
    3.4367   -0.1143    0.0000 C   0  0  0  0  0  0  0  0  0  0  0  0
    3.8101   -1.7755    0.0000 C   0  0  0  0  0  0  0  0  0  0  0  0
    0.0000   -2.3470    0.0000 C   0  0  0  0  0  0  0  0  0  0  0  0
    1.4173   -1.7755    0.0000 C   0  0  0  0  0  0  0  0  0  0  0  0
    3.2233   -3.3719    0.0000 C   0  0  0  0  0  0  0  0  0  0  0  0
  1  2  1  0  0  0  0 
  1  3  1  0  0  0  0 
  1  4  1  0  0  0  0 
  2  5  1  0  0  0  0 
  2  6  1  0  0  0  0 
  2  7  1  0  0  0  0 
  8  3  1  0  0  0  0 
  9  4  1  0  0  0  0 
  5  9  1  0  0  0  0 
  5 10  2  0  0  0  0 
  9  8  1  0  0  0  0 
M  END
> <Name>
CAMPHENE

> <Source>
DSSTox2DMolFile

> <Tox>
160

> <CAS>
79-92-5

$$$$

  CDK

 10 11  0  0  0  0  0  0  0  0999 V2000
    0.3072    0.0000    0.0000 O   0  0  0  0  0  0  0  0  0  0  0  0
    0.6145    0.9217    0.0000 C   0  0  0  0  0  0  0  0  0  0  0  0
    0.0000    1.7410    0.0000 C   0  0  0  0  0  0  0  0  0  0  0  0
    1.6386    1.2801    0.0000 C   0  0  0  0  0  0  0  0  0  0  0  0
    0.5121    2.4579    0.0000 C   0  0  0  0  0  0  0  0  0  0  0  0
    1.6386    2.2018    0.0000 C   0  0  0  0  0  0  0  0  0  0  0  0
    2.5091    0.7681    0.0000 C   0  0  0  0  0  0  0  0  0  0  0  0
    2.5091    2.7139    0.0000 C   0  0  0  0  0  0  0  0  0  0  0  0
    3.3796    1.2801    0.0000 C   0  0  0  0  0  0  0  0  0  0  0  0
    3.3796    2.2018    0.0000 C   0  0  0  0  0  0  0  0  0  0  0  0
  1  2  2  0  0  0  0 
  2  3  1  0  0  0  0 
  4  2  1  0  0  0  0 
  3  5  1  0  0  0  0 
  6  4  2  0  0  0  0 
  7  4  1  0  0  0  0 
  5  6  1  0  0  0  0 
  6  8  1  0  0  0  0 
  9  7  2  0  0  0  0 
  8 10  2  0  0  0  0 
 10  9  1  0  0  0  0 
M  END
> <Name>
1H-Inden-1-one, 2,3-dihydro-

> <Source>
NIST2DMolFile

> <Tox>
243

> <CAS>
83-33-0

$$$$

  CDK

 16 18  0  0  0  0  0  0  0  0999 V2000
    0.0000   -4.6544    0.0000 O   0  0  0  0  0  0  0  0  0  0  0  0
    1.1503   -3.9895    0.0000 C   0  0  0  0  0  0  0  0  0  0  0  0
    2.3006   -4.6544    0.0000 C   0  0  0  0  0  0  0  0  0  0  0  0
    1.1503   -2.6597    0.0000 C   0  0  0  0  0  0  0  0  0  0  0  0
    3.4576   -3.9895    0.0000 C   0  0  0  0  0  0  0  0  0  0  0  0
    2.3006   -5.9842    0.0000 C   0  0  0  0  0  0  0  0  0  0  0  0
    2.3006   -1.9947    0.0000 C   0  0  0  0  0  0  0  0  0  0  0  0
    0.0000   -1.9947    0.0000 C   0  0  0  0  0  0  0  0  0  0  0  0
    4.6079   -4.6544    0.0000 C   0  0  0  0  0  0  0  0  0  0  0  0
    3.4576   -2.6597    0.0000 C   0  0  0  0  0  0  0  0  0  0  0  0
    3.4576   -6.6491    0.0000 C   0  0  0  0  0  0  0  0  0  0  0  0
    2.3006   -0.6649    0.0000 C   0  0  0  0  0  0  0  0  0  0  0  0
    0.0000   -0.6649    0.0000 C   0  0  0  0  0  0  0  0  0  0  0  0
    4.6079   -5.9842    0.0000 C   0  0  0  0  0  0  0  0  0  0  0  0
    4.6079   -1.9947    0.0000 O   0  0  0  0  0  0  0  0  0  0  0  0
    1.1503   -0.0000    0.0000 C   0  0  0  0  0  0  0  0  0  0  0  0
  1  2  2  0  0  0  0 
  2  3  1  0  0  0  0 
  2  4  1  0  0  0  0 
  3  5  2  0  0  0  0 
  3  6  1  0  0  0  0 
  7  4  2  0  0  0  0 
  4  8  1  0  0  0  0 
  5  9  1  0  0  0  0 
  5 10  1  0  0  0  0 
 11  6  2  0  0  0  0 
 10  7  1  0  0  0  0 
  7 12  1  0  0  0  0 
  8 13  2  0  0  0  0 
  9 14  2  0  0  0  0 
 10 15  2  0  0  0  0 
 14 11  1  0  0  0  0 
 16 12  2  0  0  0  0 
 13 16  1  0  0  0  0 
M  END
> <Name>
ANTHRAQUINONE

> <Source>
DSSTox2DMolFile

> <Tox>
377

> <CAS>
84-65-1

$$$$

  CDK

 15 16  0  0  0  0  0  0  0  0999 V2000
    0.0000    0.0000    0.0000 C   0  0  0  0  0  0  0  0  0  0  0  0
   -0.4600    1.4200   -0.3600 C   0  0  0  0  0  0  0  0  0  0  0  0
    0.3200    1.9600   -1.4800 N   0  0  0  0  0  0  0  0  0  0  0  0
    0.8600    1.0400   -2.4800 C   0  0  0  0  0  0  0  0  0  0  0  0
    0.5600    3.3200   -1.5600 C   0  0  0  0  0  0  0  0  0  0  0  0
   -0.2600    0.2200   -3.1200 C   0  0  0  0  0  0  0  0  0  0  0  0
    1.8600    3.9000   -1.5400 C   0  0  0  0  0  0  0  0  0  0  0  0
   -0.5600    4.1600   -1.6600 C   0  0  0  0  0  0  0  0  0  0  0  0
    1.9800    5.3200   -1.6200 C   0  0  0  0  0  0  0  0  0  0  0  0
    3.0200    3.1200   -1.4200 C   0  0  0  0  0  0  0  0  0  0  0  0
   -0.4200    5.5400   -1.7600 C   0  0  0  0  0  0  0  0  0  0  0  0
    0.8600    6.1400   -1.7400 C   0  0  0  0  0  0  0  0  0  0  0  0
    3.2600    5.9200   -1.6000 C   0  0  0  0  0  0  0  0  0  0  0  0
    4.2800    3.7200   -1.4000 C   0  0  0  0  0  0  0  0  0  0  0  0
    4.4000    5.1200   -1.4800 C   0  0  0  0  0  0  0  0  0  0  0  0
  1  2  1  0  0  0  0 
  2  3  1  0  0  0  0 
  3  4  1  0  0  0  0 
  3  5  1  0  0  0  0 
  4  6  1  0  0  0  0 
  5  7  2  0  0  0  0 
  5  8  1  0  0  0  0 
  7  9  1  0  0  0  0 
  7 10  1  0  0  0  0 
 11  8  2  0  0  0  0 
  9 12  2  0  0  0  0 
  9 13  1  0  0  0  0 
 14 10  2  0  0  0  0 
 12 11  1  0  0  0  0 
 13 15  2  0  0  0  0 
 15 14  1  0  0  0  0 
M  END
> <Name>
1-Naphthalenamine, N,N-diethyl-

> <Source>
NIH3DMolFile

> <Tox>
285

> <CAS>
84-95-7

$$$$

  CDK

 13 14  0  0  0  0  0  0  0  0999 V2000
    2.5899    2.9385    0.0000 C   0  0  0  0  0  0  0  0  0  0  0  0
    1.7432    3.4863    0.0000 O   0  0  0  0  0  0  0  0  0  0  0  0
    3.4863    3.4365    0.0000 O   0  0  0  0  0  0  0  0  0  0  0  0
    2.5899    1.9922    0.0000 C   0  0  0  0  0  0  0  0  0  0  0  0
    1.7432    1.4941    0.0000 C   0  0  0  0  0  0  0  0  0  0  0  0
    3.4863    1.4941    0.0000 C   0  0  0  0  0  0  0  0  0  0  0  0
    1.7432    0.4980    0.0000 C   0  0  0  0  0  0  0  0  0  0  0  0
    0.8965    1.9922    0.0000 C   0  0  0  0  0  0  0  0  0  0  0  0
    3.4863    0.4980    0.0000 C   0  0  0  0  0  0  0  0  0  0  0  0
    2.5899    0.0000    0.0000 C   0  0  0  0  0  0  0  0  0  0  0  0
    0.8965    0.0000    0.0000 C   0  0  0  0  0  0  0  0  0  0  0  0
    0.0000    1.4941    0.0000 C   0  0  0  0  0  0  0  0  0  0  0  0
    0.0000    0.4980    0.0000 C   0  0  0  0  0  0  0  0  0  0  0  0
  1  2  1  0  0  0  0 
  1  3  2  0  0  0  0 
  1  4  1  0  0  0  0 
  5  4  2  0  0  0  0 
  4  6  1  0  0  0  0 
  5  7  1  0  0  0  0 
  8  5  1  0  0  0  0 
  6  9  2  0  0  0  0 
 10  7  2  0  0  0  0 
  7 11  1  0  0  0  0 
 12  8  2  0  0  0  0 
  9 10  1  0  0  0  0 
 11 13  2  0  0  0  0 
 13 12  1  0  0  0  0 
M  END
> <Name>
1-NAPTHOIC ACID

> <Source>
NIST2DMolFile

> <Tox>
300

> <CAS>
86-55-5

$$$$

  CDK

 13 14  0  0  0  0  0  0  0  0999 V2000
    1.1516   -3.9902    0.0000 O   0  0  0  0  0  0  0  0  0  0  0  0
    1.1516   -2.6601    0.0000 N   0  0  0  0  0  0  0  0  0  0  0  0
    2.3031   -1.9922    0.0000 C   0  0  0  0  0  0  0  0  0  0  0  0
    0.0000   -1.9922    0.0000 O   0  0  0  0  0  0  0  0  0  0  0  0
    3.4547   -2.6601    0.0000 C   0  0  0  0  0  0  0  0  0  0  0  0
    2.3031   -0.6622    0.0000 C   0  0  0  0  0  0  0  0  0  0  0  0
    4.6063   -1.9922    0.0000 C   0  0  0  0  0  0  0  0  0  0  0  0
    3.4547   -3.9902    0.0000 C   0  0  0  0  0  0  0  0  0  0  0  0
    3.4547   -0.0000    0.0000 C   0  0  0  0  0  0  0  0  0  0  0  0
    4.6063   -0.6622    0.0000 C   0  0  0  0  0  0  0  0  0  0  0  0
    5.7578   -2.6601    0.0000 C   0  0  0  0  0  0  0  0  0  0  0  0
    4.6063   -4.6523    0.0000 C   0  0  0  0  0  0  0  0  0  0  0  0
    5.7578   -3.9902    0.0000 C   0  0  0  0  0  0  0  0  0  0  0  0
  1  2  2  0  0  0  0 
  2  3  1  0  0  0  0 
  2  4  1  0  0  0  0 
  3  5  2  0  0  0  0 
  3  6  1  0  0  0  0 
  5  7  1  0  0  0  0 
  5  8  1  0  0  0  0 
  9  6  2  0  0  0  0 
  7 10  2  0  0  0  0 
  7 11  1  0  0  0  0 
 12  8  2  0  0  0  0 
 10  9  1  0  0  0  0 
 11 13  2  0  0  0  0 
 13 12  1  0  0  0  0 
M  CHG  1   2   1
M  CHG  1   4  -1
M  END
> <Name>
1-NITRONAPHTHALENE

> <Source>
DSSTox2DMolFile

> <Tox>
304

> <CAS>
86-57-7

$$$$

  CDK

 13 15  0  0  0  0  0  0  0  0999 V2000
    2.1965   -1.9006    0.0000 C   0  0  0  0  0  0  0  0  0  0  0  0
    4.3799   -1.9006    0.0000 C   0  0  0  0  0  0  0  0  0  0  0  0
    2.1965   -0.6248    0.0000 C   0  0  0  0  0  0  0  0  0  0  0  0
    1.1048   -2.5451    0.0000 C   0  0  0  0  0  0  0  0  0  0  0  0
    4.3799   -0.6248    0.0000 C   0  0  0  0  0  0  0  0  0  0  0  0
    5.4716   -2.5451    0.0000 C   0  0  0  0  0  0  0  0  0  0  0  0
    3.2882   -0.0000    0.0000 C   0  0  0  0  0  0  0  0  0  0  0  0
    1.1048   -0.0000    0.0000 C   0  0  0  0  0  0  0  0  0  0  0  0
    0.0000   -1.9006    0.0000 C   0  0  0  0  0  0  0  0  0  0  0  0
    5.4716   -0.0000    0.0000 C   0  0  0  0  0  0  0  0  0  0  0  0
    6.5764   -1.9006    0.0000 C   0  0  0  0  0  0  0  0  0  0  0  0
    0.0000   -0.6248    0.0000 C   0  0  0  0  0  0  0  0  0  0  0  0
    6.5764   -0.6248    0.0000 C   0  0  0  0  0  0  0  0  0  0  0  0
  1  2  1  0  0  0  0 
  1  3  2  0  0  0  0 
  1  4  1  0  0  0  0 
  2  5  2  0  0  0  0 
  2  6  1  0  0  0  0 
  3  7  1  0  0  0  0 
  3  8  1  0  0  0  0 
  4  9  2  0  0  0  0 
  5 10  1  0  0  0  0 
  5  7  1  0  0  0  0 
  6 11  2  0  0  0  0 
  8 12  2  0  0  0  0 
  9 12  1  0  0  0  0 
 10 13  2  0  0  0  0 
 11 13  1  0  0  0  0 
M  END
> <Name>
9H-FLUORENE

> <Source>
DSSTox2DMolFile

> <Tox>
295

> <CAS>
86-73-7

$$$$

  CDK

 14 14  0  0  0  0  0  0  0  0999 V2000
    2.4990    1.6993    0.0000 O   0  0  0  0  0  0  0  0  0  0  0  0
    2.9988    2.5990    0.0000 C   0  0  0  0  0  0  0  0  0  0  0  0
    1.4994    1.6993    0.0000 C   0  0  0  0  0  0  0  0  0  0  0  0
    2.4990    3.4486    0.0000 O   0  0  0  0  0  0  0  0  0  0  0  0
    3.9984    2.5990    0.0000 C   0  0  0  0  0  0  0  0  0  0  0  0
    0.9996    0.8497    0.0000 C   0  0  0  0  0  0  0  0  0  0  0  0
    4.4982    3.4486    0.0000 C   0  0  0  0  0  0  0  0  0  0  0  0
    4.4982    1.6993    0.0000 C   0  0  0  0  0  0  0  0  0  0  0  0
    1.4994    0.0000    0.0000 C   0  0  0  0  0  0  0  0  0  0  0  0
    0.0000    0.8497    0.0000 C   0  0  0  0  0  0  0  0  0  0  0  0
    3.9984    4.2983    0.0000 O   0  0  0  0  0  0  0  0  0  0  0  0
    5.4978    3.4486    0.0000 C   0  0  0  0  0  0  0  0  0  0  0  0
    5.4978    1.6993    0.0000 C   0  0  0  0  0  0  0  0  0  0  0  0
    5.9976    2.5990    0.0000 C   0  0  0  0  0  0  0  0  0  0  0  0
  1  2  1  0  0  0  0 
  1  3  1  0  0  0  0 
  2  4  2  0  0  0  0 
  2  5  1  0  0  0  0 
  3  6  1  0  0  0  0 
  7  5  2  0  0  0  0 
  5  8  1  0  0  0  0 
  6  9  1  0  0  0  0 
  6 10  1  0  0  0  0 
  7 11  1  0  0  0  0 
 12  7  1  0  0  0  0 
  8 13  2  0  0  0  0 
 14 12  2  0  0  0  0 
 13 14  1  0  0  0  0 
M  END
> <Name>
Benzoic acid, 2-hydroxy-, 2-methylpropyl ester

> <Source>
NIST2DMolFile

> <Tox>
261

> <CAS>
87-19-4

$$$$

  CDK

  9  9  0  0  0  0  0  0  0  0999 V2000
    0.0000   -2.3037    0.0000 Cl  0  0  0  0  0  0  0  0  0  0  0  0
    1.3315   -2.3037    0.0000 C   0  0  0  0  0  0  0  0  0  0  0  0
    1.9950   -1.1518    0.0000 C   0  0  0  0  0  0  0  0  0  0  0  0
    1.9950   -3.4555    0.0000 C   0  0  0  0  0  0  0  0  0  0  0  0
    1.3315   -0.0000    0.0000 Cl  0  0  0  0  0  0  0  0  0  0  0  0
    3.3265   -1.1518    0.0000 C   0  0  0  0  0  0  0  0  0  0  0  0
    3.3265   -3.4555    0.0000 C   0  0  0  0  0  0  0  0  0  0  0  0
    1.3315   -4.6073    0.0000 Cl  0  0  0  0  0  0  0  0  0  0  0  0
    3.9899   -2.3037    0.0000 C   0  0  0  0  0  0  0  0  0  0  0  0
  1  2  1  0  0  0  0 
  2  3  2  0  0  0  0 
  2  4  1  0  0  0  0 
  3  5  1  0  0  0  0 
  3  6  1  0  0  0  0 
  7  4  2  0  0  0  0 
  4  8  1  0  0  0  0 
  6  9  2  0  0  0  0 
  9  7  1  0  0  0  0 
M  END
> <Name>
1,2,3-TRICHLOROBENZENE

> <Source>
DSSTox2DMolFile

> <Tox>
218.5

> <CAS>
87-61-6

$$$$

  CDK

  9  9  0  0  0  0  0  0  0  0999 V2000
    0.0000   -2.3037    0.0000 N   0  0  0  0  0  0  0  0  0  0  0  0
    1.3315   -2.3037    0.0000 C   0  0  0  0  0  0  0  0  0  0  0  0
    1.9950   -1.1518    0.0000 C   0  0  0  0  0  0  0  0  0  0  0  0
    1.9950   -3.4555    0.0000 C   0  0  0  0  0  0  0  0  0  0  0  0
    3.3265   -1.1518    0.0000 C   0  0  0  0  0  0  0  0  0  0  0  0
    1.3315   -0.0000    0.0000 C   0  0  0  0  0  0  0  0  0  0  0  0
    3.3265   -3.4555    0.0000 C   0  0  0  0  0  0  0  0  0  0  0  0
    1.3315   -4.6073    0.0000 C   0  0  0  0  0  0  0  0  0  0  0  0
    3.9899   -2.3037    0.0000 C   0  0  0  0  0  0  0  0  0  0  0  0
  1  2  1  0  0  0  0 
  2  3  2  0  0  0  0 
  2  4  1  0  0  0  0 
  3  5  1  0  0  0  0 
  3  6  1  0  0  0  0 
  7  4  2  0  0  0  0 
  4  8  1  0  0  0  0 
  5  9  2  0  0  0  0 
  9  7  1  0  0  0  0 
M  END
> <Name>
2,6-DIMETHYLANILINE

> <Source>
DSSTox2DMolFile

> <Tox>
215

> <CAS>
87-62-7

$$$$

  CDK

 18 17  0  0  0  0  0  0  0  0999 V2000
    0.0000    0.0000    0.0000 C   0  0  0  0  0  0  0  0  0  0  0  0
    0.5600    0.7400   -1.0600 O   0  0  0  0  0  0  0  0  0  0  0  0
    0.1200    0.8000    1.3000 C   0  0  0  0  0  0  0  0  0  0  0  0
    0.2600    0.2200   -2.2600 C   0  0  0  0  0  0  0  0  0  0  0  0
   -0.6000    0.1400    2.4800 C   0  0  0  0  0  0  0  0  0  0  0  0
    0.6800    1.0600   -3.4400 C   0  0  0  0  0  0  0  0  0  0  0  0
   -0.2800   -0.8400   -2.4000 O   0  0  0  0  0  0  0  0  0  0  0  0
   -0.6000    1.0000    3.7400 C   0  0  0  0  0  0  0  0  0  0  0  0
    1.3600    0.2400   -4.5200 C   0  0  0  0  0  0  0  0  0  0  0  0
   -0.4600    1.6600   -4.0000 O   0  0  0  0  0  0  0  0  0  0  0  0
    0.4600   -0.7200   -5.0000 O   0  0  0  0  0  0  0  0  0  0  0  0
    1.8400    1.0800   -5.6800 C   0  0  0  0  0  0  0  0  0  0  0  0
    3.0600    0.8000   -6.1200 O   0  0  0  0  0  0  0  0  0  0  0  0
    1.1200    1.9600   -6.1400 O   0  0  0  0  0  0  0  0  0  0  0  0
    3.3800    1.5400   -7.3000 C   0  0  0  0  0  0  0  0  0  0  0  0
    4.6400    0.9600   -7.9200 C   0  0  0  0  0  0  0  0  0  0  0  0
    5.0000    1.6200   -9.2600 C   0  0  0  0  0  0  0  0  0  0  0  0
    6.1800    0.9400   -9.9600 C   0  0  0  0  0  0  0  0  0  0  0  0
  1  2  1  0  0  0  0 
  1  3  1  0  0  0  0 
  2  4  1  0  0  0  0 
  3  5  1  0  0  0  0 
  4  6  1  0  0  0  0 
  4  7  2  0  0  0  0 
  5  8  1  0  0  0  0 
  6  9  1  0  0  0  0 
  6 10  1  0  0  0  0 
  9 11  1  0  0  0  0 
  9 12  1  0  0  0  0 
 13 12  1  0  0  0  0 
 12 14  2  0  0  0  0 
 15 13  1  0  0  0  0 
 16 15  1  0  0  0  0 
 17 16  1  0  0  0  0 
 18 17  1  0  0  0  0 
M  END
> <Name>
Butanedioic acid, 2,3-dihydroxy-,dibutyl ester

> <Source>
NIH3DMolFile

> <Tox>
320

> <CAS>
87-92-3

$$$$

  CDK

  8  7  0  0  0  0  0  0  0  0999 V2000
    1.5263    1.0175    0.0000 N   0  0  0  0  0  0  0  0  0  0  0  0
    1.0175    1.8315    0.0000 C   0  0  0  0  0  0  0  0  0  0  0  0
    1.0175    0.1526    0.0000 C   0  0  0  0  0  0  0  0  0  0  0  0
    2.4929    1.0175    0.0000 C   0  0  0  0  0  0  0  0  0  0  0  0
    0.0000    1.8315    0.0000 C   0  0  0  0  0  0  0  0  0  0  0  0
    0.0000    0.1526    0.0000 C   0  0  0  0  0  0  0  0  0  0  0  0
    2.4929    0.0000    0.0000 O   0  0  0  0  0  0  0  0  0  0  0  0
    3.5104    1.0175    0.0000 Cl  0  0  0  0  0  0  0  0  0  0  0  0
  1  2  1  0  0  0  0 
  1  3  1  0  0  0  0 
  1  4  1  0  0  0  0 
  2  5  1  0  0  0  0 
  3  6  1  0  0  0  0 
  4  7  2  0  0  0  0 
  4  8  1  0  0  0  0 
M  END
> <Name>
Carbamic chloride, diethyl-

> <Source>
NIST2DMolFile

> <Tox>
186

> <CAS>
88-10-8

$$$$

  CDK

 10 10  0  0  0  0  0  0  0  0999 V2000
    3.9896   -2.3044    0.0000 N   0  0  0  0  0  0  0  0  0  0  0  0
    4.6553   -3.4542    0.0000 O   0  0  0  0  0  0  0  0  0  0  0  0
    4.6553   -1.1499    0.0000 O   0  0  0  0  0  0  0  0  0  0  0  0
    2.6582   -2.3044    0.0000 C   0  0  0  0  0  0  0  0  0  0  0  0
    1.9971   -3.4542    0.0000 C   0  0  0  0  0  0  0  0  0  0  0  0
    1.9971   -1.1499    0.0000 C   0  0  0  0  0  0  0  0  0  0  0  0
    0.6657   -3.4542    0.0000 C   0  0  0  0  0  0  0  0  0  0  0  0
    0.6657   -1.1499    0.0000 C   0  0  0  0  0  0  0  0  0  0  0  0
    2.6582   -0.0000    0.0000 N   0  0  0  0  0  0  0  0  0  0  0  0
    0.0000   -2.3044    0.0000 C   0  0  0  0  0  0  0  0  0  0  0  0
  1  2  2  0  0  0  0 
  1  3  1  0  0  0  0 
  1  4  1  0  0  0  0 
  4  5  2  0  0  0  0 
  4  6  1  0  0  0  0 
  5  7  1  0  0  0  0 
  8  6  2  0  0  0  0 
  6  9  1  0  0  0  0 
  7 10  2  0  0  0  0 
 10  8  1  0  0  0  0 
M  CHG  1   1   1
M  CHG  1   3  -1
M  END
> <Name>
2-NITROANILINE

> <Source>
DSSTox2DMolFile

> <Tox>
284

> <CAS>
88-74-4

$$$$

  CDK

 10 10  0  0  0  0  0  0  0  0999 V2000
    2.6582   -0.0000    0.0000 O   0  0  0  0  0  0  0  0  0  0  0  0
    1.9971   -1.1499    0.0000 C   0  0  0  0  0  0  0  0  0  0  0  0
    2.6582   -2.3044    0.0000 C   0  0  0  0  0  0  0  0  0  0  0  0
    0.6657   -1.1499    0.0000 C   0  0  0  0  0  0  0  0  0  0  0  0
    3.9896   -2.3044    0.0000 N   0  0  0  0  0  0  0  0  0  0  0  0
    1.9971   -3.4542    0.0000 C   0  0  0  0  0  0  0  0  0  0  0  0
    0.0000   -2.3044    0.0000 C   0  0  0  0  0  0  0  0  0  0  0  0
    4.6553   -1.1499    0.0000 O   0  0  0  0  0  0  0  0  0  0  0  0
    4.6553   -3.4542    0.0000 O   0  0  0  0  0  0  0  0  0  0  0  0
    0.6657   -3.4542    0.0000 C   0  0  0  0  0  0  0  0  0  0  0  0
  1  2  1  0  0  0  0 
  2  3  2  0  0  0  0 
  2  4  1  0  0  0  0 
  3  5  1  0  0  0  0 
  3  6  1  0  0  0  0 
  7  4  2  0  0  0  0 
  5  8  1  0  0  0  0 
  5  9  2  0  0  0  0 
  6 10  2  0  0  0  0 
 10  7  1  0  0  0  0 
M  CHG  1   5   1
M  CHG  1   8  -1
M  END
> <Name>
2-NITROPHENOL

> <Source>
DSSTox2DMolFile

> <Tox>
216

> <CAS>
88-75-5

$$$$

  CDK

 11 11  0  0  0  0  0  0  0  0999 V2000
    0.0000   -3.4582    0.0000 O   0  0  0  0  0  0  0  0  0  0  0  0
    0.6656   -2.3039    0.0000 N   0  0  0  0  0  0  0  0  0  0  0  0
    0.0000   -1.1543    0.0000 O   0  0  0  0  0  0  0  0  0  0  0  0
    1.9968   -2.3039    0.0000 C   0  0  0  0  0  0  0  0  0  0  0  0
    2.6577   -1.1543    0.0000 C   0  0  0  0  0  0  0  0  0  0  0  0
    2.6577   -3.4582    0.0000 C   0  0  0  0  0  0  0  0  0  0  0  0
    3.9889   -1.1543    0.0000 C   0  0  0  0  0  0  0  0  0  0  0  0
    1.9968   -0.0000    0.0000 C   0  0  0  0  0  0  0  0  0  0  0  0
    3.9889   -3.4582    0.0000 C   0  0  0  0  0  0  0  0  0  0  0  0
    4.6544   -2.3039    0.0000 C   0  0  0  0  0  0  0  0  0  0  0  0
    4.6544   -4.6079    0.0000 C   0  0  0  0  0  0  0  0  0  0  0  0
  1  2  1  0  0  0  0 
  2  3  2  0  0  0  0 
  2  4  1  0  0  0  0 
  4  5  2  0  0  0  0 
  4  6  1  0  0  0  0 
  5  7  1  0  0  0  0 
  5  8  1  0  0  0  0 
  9  6  2  0  0  0  0 
  7 10  2  0  0  0  0 
 10  9  1  0  0  0  0 
  9 11  1  0  0  0  0 
M  CHG  1   1  -1
M  CHG  1   2   1
M  END
> <Name>
Benzene, 1,4-dimethyl-2-nitro-

> <Source>
DSSTox2DMolFile

> <Tox>
240.5

> <CAS>
89-58-7

$$$$

  CDK

 11 11  0  0  0  0  0  0  0  0999 V2000
    2.3101   -3.3181    0.0000 C   0  0  0  0  0  0  0  0  0  0  0  0
    1.1580   -3.9961    0.0000 C   0  0  0  0  0  0  0  0  0  0  0  0
    2.3101   -1.9921    0.0000 C   0  0  0  0  0  0  0  0  0  0  0  0
    3.4681   -3.9961    0.0000 O   0  0  0  0  0  0  0  0  0  0  0  0
    0.0000   -3.3181    0.0000 C   0  0  0  0  0  0  0  0  0  0  0  0
    1.1580   -5.3282    0.0000 C   0  0  0  0  0  0  0  0  0  0  0  0
    1.1580   -1.3140    0.0000 C   0  0  0  0  0  0  0  0  0  0  0  0
    0.0000   -1.9921    0.0000 C   0  0  0  0  0  0  0  0  0  0  0  0
    2.2921   -5.9822    0.0000 C   0  0  0  0  0  0  0  0  0  0  0  0
    0.0180   -6.0002    0.0000 C   0  0  0  0  0  0  0  0  0  0  0  0
    1.1580   -0.0000    0.0000 C   0  0  0  0  0  0  0  0  0  0  0  0
  1  2  1  0  0  0  0 
  1  3  2  0  0  0  0 
  1  4  1  0  0  0  0 
  2  5  2  0  0  0  0 
  2  6  1  0  0  0  0 
  3  7  1  0  0  0  0 
  5  8  1  0  0  0  0 
  6  9  1  0  0  0  0 
  6 10  1  0  0  0  0 
  8  7  2  0  0  0  0 
  7 11  1  0  0  0  0 
M  END
> <Name>
THYMOL

> <Source>
DSSTox2DMolFile

> <Tox>
232.5

> <CAS>
89-83-8

$$$$

  CDK

 11 11  0  0  0  0  0  0  0  0999 V2000
    0.0000   -2.3037    0.0000 C   0  0  0  0  0  0  0  0  0  0  0  0
    1.3283   -2.3037    0.0000 C   0  0  0  0  0  0  0  0  0  0  0  0
    1.9925   -1.1488    0.0000 C   0  0  0  0  0  0  0  0  0  0  0  0
    1.9925   -3.4525    0.0000 C   0  0  0  0  0  0  0  0  0  0  0  0
    3.3269   -1.1488    0.0000 C   0  0  0  0  0  0  0  0  0  0  0  0
    3.3269   -3.4525    0.0000 C   0  0  0  0  0  0  0  0  0  0  0  0
    3.9910   -2.3037    0.0000 C   0  0  0  0  0  0  0  0  0  0  0  0
    3.9910   -0.0000    0.0000 C   0  0  0  0  0  0  0  0  0  0  0  0
    5.3194   -2.3037    0.0000 N   0  0  0  0  0  0  0  0  0  0  0  0
    5.9835   -3.4525    0.0000 O   0  0  0  0  0  0  0  0  0  0  0  0
    5.9835   -1.1488    0.0000 O   0  0  0  0  0  0  0  0  0  0  0  0
  1  2  1  0  0  0  0 
  2  3  2  0  0  0  0 
  2  4  1  0  0  0  0 
  3  5  1  0  0  0  0 
  6  4  2  0  0  0  0 
  5  7  2  0  0  0  0 
  5  8  1  0  0  0  0 
  7  6  1  0  0  0  0 
  7  9  1  0  0  0  0 
  9 10  1  0  0  0  0 
  9 11  2  0  0  0  0 
M  CHG  1   9   1
M  CHG  1  10  -1
M  END
> <Name>
4-NITRO-M-XYLENE

> <Source>
DSSTox2DMolFile

> <Tox>
247

> <CAS>
89-87-2

$$$$

  CDK

  9  9  0  0  0  0  0  0  0  0999 V2000
    0.0000    0.0000    0.0000 Br  0  0  0  0  0  0  0  0  0  0  0  0
    1.0800   -0.9600   -1.2600 C   0  0  0  0  0  0  0  0  0  0  0  0
    1.7400   -2.1200   -0.5600 C   0  0  0  0  0  0  0  0  0  0  0  0
    3.0200   -1.9800    0.0000 C   0  0  0  0  0  0  0  0  0  0  0  0
    1.0600   -3.3400   -0.4800 C   0  0  0  0  0  0  0  0  0  0  0  0
    3.7400   -0.7000   -0.0800 C   0  0  0  0  0  0  0  0  0  0  0  0
    3.6200   -3.0800    0.6400 C   0  0  0  0  0  0  0  0  0  0  0  0
    1.6600   -4.4400    0.1600 C   0  0  0  0  0  0  0  0  0  0  0  0
    2.9200   -4.3000    0.7200 C   0  0  0  0  0  0  0  0  0  0  0  0
  1  2  1  0  0  0  0 
  2  3  1  0  0  0  0 
  3  4  2  0  0  0  0 
  3  5  1  0  0  0  0 
  4  6  1  0  0  0  0 
  4  7  1  0  0  0  0 
  8  5  2  0  0  0  0 
  7  9  2  0  0  0  0 
  9  8  1  0  0  0  0 
M  END
> <Name>
BENZENE, 1-(BROMOMETHYL)-2-METHYL-

> <Source>
NIH3DMolFile

> <Tox>
217

> <CAS>
89-92-9

$$$$

  CDK

  9  9  0  0  0  0  0  0  0  0999 V2000
    1.9976   -1.1501    0.0000 C   0  0  0  0  0  0  0  0  0  0  0  0
    2.6588   -2.3049    0.0000 C   0  0  0  0  0  0  0  0  0  0  0  0
    0.6659   -1.1501    0.0000 C   0  0  0  0  0  0  0  0  0  0  0  0
    2.6588   -0.0000    0.0000 O   0  0  0  0  0  0  0  0  0  0  0  0
    3.9905   -2.3049    0.0000 C   0  0  0  0  0  0  0  0  0  0  0  0
    1.9976   -3.4550    0.0000 C   0  0  0  0  0  0  0  0  0  0  0  0
    0.0000   -2.3049    0.0000 C   0  0  0  0  0  0  0  0  0  0  0  0
    4.6563   -3.4550    0.0000 C   0  0  0  0  0  0  0  0  0  0  0  0
    0.6659   -3.4550    0.0000 C   0  0  0  0  0  0  0  0  0  0  0  0
  1  2  2  0  0  0  0 
  1  3  1  0  0  0  0 
  1  4  1  0  0  0  0 
  2  5  1  0  0  0  0 
  2  6  1  0  0  0  0 
  7  3  2  0  0  0  0 
  5  8  1  0  0  0  0 
  6  9  2  0  0  0  0 
  9  7  1  0  0  0  0 
M  END
> <Name>
O-ETHYLPHENOL

> <Source>
DSSTox2DMolFile

> <Tox>
204.5

> <CAS>
90-00-6

$$$$

  CDK

 11 12  0  0  0  0  0  0  0  0999 V2000
    2.5864    1.9896    0.0000 C   0  0  0  0  0  0  0  0  0  0  0  0
    2.5864    2.9844    0.0000 Br  0  0  0  0  0  0  0  0  0  0  0  0
    1.7409    1.4922    0.0000 C   0  0  0  0  0  0  0  0  0  0  0  0
    3.4818    1.4922    0.0000 C   0  0  0  0  0  0  0  0  0  0  0  0
    1.7409    0.4974    0.0000 C   0  0  0  0  0  0  0  0  0  0  0  0
    0.8953    1.9896    0.0000 C   0  0  0  0  0  0  0  0  0  0  0  0
    3.4818    0.4974    0.0000 C   0  0  0  0  0  0  0  0  0  0  0  0
    2.5864    0.0000    0.0000 C   0  0  0  0  0  0  0  0  0  0  0  0
    0.8953    0.0000    0.0000 C   0  0  0  0  0  0  0  0  0  0  0  0
    0.0000    1.4922    0.0000 C   0  0  0  0  0  0  0  0  0  0  0  0
    0.0000    0.4974    0.0000 C   0  0  0  0  0  0  0  0  0  0  0  0
  1  2  1  0  0  0  0 
  3  1  2  0  0  0  0 
  1  4  1  0  0  0  0 
  3  5  1  0  0  0  0 
  6  3  1  0  0  0  0 
  4  7  2  0  0  0  0 
  8  5  2  0  0  0  0 
  5  9  1  0  0  0  0 
 10  6  2  0  0  0  0 
  7  8  1  0  0  0  0 
  9 11  2  0  0  0  0 
 11 10  1  0  0  0  0 
M  END
> <Name>
1-BROMONAPHTHALENE

> <Source>
NIST2DMolFile

> <Tox>
281

> <CAS>
90-11-9

$$$$

  CDK

 11 12  0  0  0  0  0  0  0  0999 V2000
    0.0000   -1.5884    0.0000 C   0  0  0  0  0  0  0  0  0  0  0  0
    0.0000   -2.9586    0.0000 C   0  0  0  0  0  0  0  0  0  0  0  0
    1.1854   -0.9151    0.0000 C   0  0  0  0  0  0  0  0  0  0  0  0
    1.1854   -3.6461    0.0000 C   0  0  0  0  0  0  0  0  0  0  0  0
    2.3660   -1.5979    0.0000 C   0  0  0  0  0  0  0  0  0  0  0  0
    2.3660   -2.9634    0.0000 C   0  0  0  0  0  0  0  0  0  0  0  0
    3.5608   -0.9246    0.0000 C   0  0  0  0  0  0  0  0  0  0  0  0
    3.5608   -3.6509    0.0000 C   0  0  0  0  0  0  0  0  0  0  0  0
    4.7414   -1.6073    0.0000 C   0  0  0  0  0  0  0  0  0  0  0  0
    3.5703   -0.0000    0.0000 Cl  0  0  0  0  0  0  0  0  0  0  0  0
    4.7414   -2.9681    0.0000 C   0  0  0  0  0  0  0  0  0  0  0  0
  1  2  1  0  0  0  0 
  1  3  2  0  0  0  0 
  2  4  2  0  0  0  0 
  5  3  1  0  0  0  0 
  4  6  1  0  0  0  0 
  6  5  1  0  0  0  0 
  5  7  2  0  0  0  0 
  6  8  2  0  0  0  0 
  9  7  1  0  0  0  0 
  7 10  1  0  0  0  0 
  8 11  1  0  0  0  0 
 11  9  2  0  0  0  0 
M  END
> <Name>
1-CHLORONAPHTHALENE

> <Source>
DSSTox2DMolFile

> <Tox>
259

> <CAS>
90-13-1

$$$$

  CDK

 11 12  0  0  0  0  0  0  0  0999 V2000
    0.0000    1.5433    0.0000 C   0  0  0  0  0  0  0  0  0  0  0  0
    0.0000    0.4978    0.0000 C   0  0  0  0  0  0  0  0  0  0  0  0
    0.8463    2.0411    0.0000 C   0  0  0  0  0  0  0  0  0  0  0  0
    0.8463    0.0000    0.0000 C   0  0  0  0  0  0  0  0  0  0  0  0
    1.6926    1.5433    0.0000 C   0  0  0  0  0  0  0  0  0  0  0  0
    1.6926    0.5476    0.0000 C   0  0  0  0  0  0  0  0  0  0  0  0
    2.5887    2.0411    0.0000 C   0  0  0  0  0  0  0  0  0  0  0  0
    2.5887    0.0498    0.0000 C   0  0  0  0  0  0  0  0  0  0  0  0
    3.4350    1.5433    0.0000 C   0  0  0  0  0  0  0  0  0  0  0  0
    2.5887    3.0368    0.0000 I   0  0  0  0  0  0  0  0  0  0  0  0
    3.4350    0.5476    0.0000 C   0  0  0  0  0  0  0  0  0  0  0  0
  2  1  2  0  0  0  0 
  1  3  1  0  0  0  0 
  4  2  1  0  0  0  0 
  3  5  2  0  0  0  0 
  6  4  2  0  0  0  0 
  6  5  1  0  0  0  0 
  5  7  1  0  0  0  0 
  8  6  1  0  0  0  0 
  7  9  2  0  0  0  0 
  7 10  1  0  0  0  0 
 11  8  2  0  0  0  0 
  9 11  1  0  0  0  0 
M  END
> <Name>
1-IODONAPHTHALENE

> <Source>
NIST2DMolFile

> <Tox>
302

> <CAS>
90-14-2

$$$$

  CDK

 11 12  0  0  0  0  0  0  0  0999 V2000
    3.4555   -0.0000    0.0000 O   0  0  0  0  0  0  0  0  0  0  0  0
    3.4555   -1.3315    0.0000 C   0  0  0  0  0  0  0  0  0  0  0  0
    4.6073   -1.9950    0.0000 C   0  0  0  0  0  0  0  0  0  0  0  0
    2.3037   -1.9950    0.0000 C   0  0  0  0  0  0  0  0  0  0  0  0
    4.6073   -3.3265    0.0000 C   0  0  0  0  0  0  0  0  0  0  0  0
    2.3037   -3.3265    0.0000 C   0  0  0  0  0  0  0  0  0  0  0  0
    1.1518   -1.3315    0.0000 C   0  0  0  0  0  0  0  0  0  0  0  0
    3.4555   -3.9899    0.0000 C   0  0  0  0  0  0  0  0  0  0  0  0
    1.1518   -3.9899    0.0000 C   0  0  0  0  0  0  0  0  0  0  0  0
    0.0000   -1.9950    0.0000 C   0  0  0  0  0  0  0  0  0  0  0  0
    0.0000   -3.3265    0.0000 C   0  0  0  0  0  0  0  0  0  0  0  0
  1  2  1  0  0  0  0 
  2  3  2  0  0  0  0 
  2  4  1  0  0  0  0 
  3  5  1  0  0  0  0 
  6  4  1  0  0  0  0 
  7  4  2  0  0  0  0 
  5  8  2  0  0  0  0 
  8  6  1  0  0  0  0 
  6  9  2  0  0  0  0 
 10  7  1  0  0  0  0 
  9 11  1  0  0  0  0 
 11 10  2  0  0  0  0 
M  END
> <Name>
1-NAPHTHOL

> <Source>
DSSTox2DMolFile

> <Tox>
288

> <CAS>
90-15-3

$$$$

  CDK

 13 14  0  0  0  0  0  0  0  0999 V2000
    2.6607   -0.0000    0.0000 O   0  0  0  0  0  0  0  0  0  0  0  0
    1.9955   -1.1574    0.0000 C   0  0  0  0  0  0  0  0  0  0  0  0
    2.6607   -2.3082    0.0000 C   0  0  0  0  0  0  0  0  0  0  0  0
    0.6652   -1.1574    0.0000 C   0  0  0  0  0  0  0  0  0  0  0  0
    1.9955   -3.4589    0.0000 C   0  0  0  0  0  0  0  0  0  0  0  0
    3.9910   -2.3082    0.0000 C   0  0  0  0  0  0  0  0  0  0  0  0
    0.0000   -2.3082    0.0000 C   0  0  0  0  0  0  0  0  0  0  0  0
    0.6652   -3.4589    0.0000 C   0  0  0  0  0  0  0  0  0  0  0  0
    4.6562   -1.1574    0.0000 C   0  0  0  0  0  0  0  0  0  0  0  0
    4.6562   -3.4589    0.0000 C   0  0  0  0  0  0  0  0  0  0  0  0
    5.9866   -1.1574    0.0000 C   0  0  0  0  0  0  0  0  0  0  0  0
    5.9866   -3.4589    0.0000 C   0  0  0  0  0  0  0  0  0  0  0  0
    6.6517   -2.3082    0.0000 C   0  0  0  0  0  0  0  0  0  0  0  0
  1  2  1  0  0  0  0 
  2  3  2  0  0  0  0 
  2  4  1  0  0  0  0 
  3  5  1  0  0  0  0 
  3  6  1  0  0  0  0 
  7  4  2  0  0  0  0 
  5  8  2  0  0  0  0 
  6  9  2  0  0  0  0 
  6 10  1  0  0  0  0 
  8  7  1  0  0  0  0 
  9 11  1  0  0  0  0 
 12 10  2  0  0  0  0 
 11 13  2  0  0  0  0 
 13 12  1  0  0  0  0 
M  END
> <Name>
2-PHENYLPHENOL

> <Source>
DSSTox2DMolFile

> <Tox>
286

> <CAS>
90-43-7

$$$$

  CDK

 10 11  0  0  0  0  0  0  0  0999 V2000
    2.3039   -0.6635    0.0000 C   0  0  0  0  0  0  0  0  0  0  0  0
    3.4558   -0.0000    0.0000 C   0  0  0  0  0  0  0  0  0  0  0  0
    2.3039   -1.9952    0.0000 C   0  0  0  0  0  0  0  0  0  0  0  0
    1.1519   -0.0000    0.0000 C   0  0  0  0  0  0  0  0  0  0  0  0
    4.6078   -0.6635    0.0000 C   0  0  0  0  0  0  0  0  0  0  0  0
    3.4558   -2.6587    0.0000 C   0  0  0  0  0  0  0  0  0  0  0  0
    1.1519   -2.6587    0.0000 C   0  0  0  0  0  0  0  0  0  0  0  0
    0.0000   -0.6635    0.0000 C   0  0  0  0  0  0  0  0  0  0  0  0
    4.6078   -1.9952    0.0000 C   0  0  0  0  0  0  0  0  0  0  0  0
    0.0000   -1.9952    0.0000 C   0  0  0  0  0  0  0  0  0  0  0  0
  1  2  1  0  0  0  0 
  1  3  1  0  0  0  0 
  1  4  1  0  0  0  0 
  2  5  1  0  0  0  0 
  6  3  1  0  0  0  0 
  3  7  1  0  0  0  0 
  8  4  1  0  0  0  0 
  5  9  1  0  0  0  0 
  9  6  1  0  0  0  0 
  7 10  1  0  0  0  0 
 10  8  1  0  0  0  0 
M  END
> <Name>
DECAHYDRONAPHTHALENE

> <Source>
DSSTox2DMolFile

> <Tox>
155.5

> <CAS>
91-17-8

$$$$

  CDK

 10 11  0  0  0  0  0  0  0  0999 V2000
    3.4558   -2.6587    0.0000 N   0  0  0  0  0  0  0  0  0  0  0  0
    4.6078   -1.9952    0.0000 C   0  0  0  0  0  0  0  0  0  0  0  0
    2.3039   -1.9952    0.0000 C   0  0  0  0  0  0  0  0  0  0  0  0
    4.6078   -0.6635    0.0000 C   0  0  0  0  0  0  0  0  0  0  0  0
    2.3039   -0.6635    0.0000 C   0  0  0  0  0  0  0  0  0  0  0  0
    1.1519   -2.6587    0.0000 C   0  0  0  0  0  0  0  0  0  0  0  0
    3.4558   -0.0000    0.0000 C   0  0  0  0  0  0  0  0  0  0  0  0
    1.1519   -0.0000    0.0000 C   0  0  0  0  0  0  0  0  0  0  0  0
    0.0000   -1.9952    0.0000 C   0  0  0  0  0  0  0  0  0  0  0  0
    0.0000   -0.6635    0.0000 C   0  0  0  0  0  0  0  0  0  0  0  0
  1  2  2  0  0  0  0 
  1  3  1  0  0  0  0 
  2  4  1  0  0  0  0 
  5  3  2  0  0  0  0 
  3  6  1  0  0  0  0 
  4  7  2  0  0  0  0 
  7  5  1  0  0  0  0 
  5  8  1  0  0  0  0 
  6  9  2  0  0  0  0 
 10  8  2  0  0  0  0 
  9 10  1  0  0  0  0 
M  END
> <Name>
QUINOLINE

> <Source>
DSSTox2DMolFile

> <Tox>
237.1

> <CAS>
91-22-5

$$$$

  CDK

 11 11  0  0  0  0  0  0  0  0999 V2000
    1.9971   -0.0000    0.0000 C   0  0  0  0  0  0  0  0  0  0  0  0
    2.6581   -1.1545    0.0000 O   0  0  0  0  0  0  0  0  0  0  0  0
    1.9971   -2.3043    0.0000 C   0  0  0  0  0  0  0  0  0  0  0  0
    2.6581   -3.4588    0.0000 C   0  0  0  0  0  0  0  0  0  0  0  0
    0.6657   -2.3043    0.0000 C   0  0  0  0  0  0  0  0  0  0  0  0
    1.9971   -4.6086    0.0000 C   0  0  0  0  0  0  0  0  0  0  0  0
    3.9895   -3.4588    0.0000 N   0  0  0  0  0  0  0  0  0  0  0  0
    0.0000   -3.4588    0.0000 C   0  0  0  0  0  0  0  0  0  0  0  0
    0.6657   -4.6086    0.0000 C   0  0  0  0  0  0  0  0  0  0  0  0
    4.6552   -2.3043    0.0000 O   0  0  0  0  0  0  0  0  0  0  0  0
    4.6552   -4.6086    0.0000 O   0  0  0  0  0  0  0  0  0  0  0  0
  1  2  1  0  0  0  0 
  2  3  1  0  0  0  0 
  3  4  2  0  0  0  0 
  3  5  1  0  0  0  0 
  4  6  1  0  0  0  0 
  4  7  1  0  0  0  0 
  8  5  2  0  0  0  0 
  6  9  2  0  0  0  0 
  7 10  2  0  0  0  0 
  7 11  1  0  0  0  0 
  9  8  1  0  0  0  0 
M  CHG  1   7   1
M  CHG  1  11  -1
M  END
> <Name>
2-NITROANISOLE

> <Source>
DSSTox2DMolFile

> <Tox>
277

> <CAS>
91-23-6

$$$$

  CDK

 11 12  0  0  0  0  0  0  0  0999 V2000
    2.9827    2.7839    0.0000 C   0  0  0  0  0  0  0  0  0  0  0  0
    2.6844    1.8393    0.0000 C   0  0  0  0  0  0  0  0  0  0  0  0
    1.7399    1.4914    0.0000 C   0  0  0  0  0  0  0  0  0  0  0  0
    3.2313    1.0439    0.0000 C   0  0  0  0  0  0  0  0  0  0  0  0
    1.7399    0.4971    0.0000 C   0  0  0  0  0  0  0  0  0  0  0  0
    0.8948    1.9885    0.0000 C   0  0  0  0  0  0  0  0  0  0  0  0
    4.2752    1.0439    0.0000 C   0  0  0  0  0  0  0  0  0  0  0  0
    2.6844    0.1988    0.0000 N   0  0  0  0  0  0  0  0  0  0  0  0
    0.8948    0.0000    0.0000 C   0  0  0  0  0  0  0  0  0  0  0  0
    0.0000    1.4914    0.0000 C   0  0  0  0  0  0  0  0  0  0  0  0
    0.0000    0.4971    0.0000 C   0  0  0  0  0  0  0  0  0  0  0  0
  1  2  1  0  0  0  0 
  3  2  1  0  0  0  0 
  2  4  2  0  0  0  0 
  5  3  2  0  0  0  0 
  6  3  1  0  0  0  0 
  4  7  1  0  0  0  0 
  4  8  1  0  0  0  0 
  8  5  1  0  0  0  0 
  5  9  1  0  0  0  0 
 10  6  2  0  0  0  0 
  9 11  2  0  0  0  0 
 11 10  1  0  0  0  0 
M  END
> <Name>
1H-INDOLE, 2,3-DIMETHYL-

> <Source>
NIST2DMolFile

> <Tox>
285

> <CAS>
91-55-4

$$$$

  CDK

 11 12  0  0  0  0  0  0  0  0999 V2000
    2.2832   -0.6556    0.0000 C   0  0  0  0  0  0  0  0  0  0  0  0
    1.1445   -0.0000    0.0000 C   0  0  0  0  0  0  0  0  0  0  0  0
    3.4449   -0.0000    0.0000 C   0  0  0  0  0  0  0  0  0  0  0  0
    2.2832   -2.0071    0.0000 C   0  0  0  0  0  0  0  0  0  0  0  0
    0.0000   -0.6556    0.0000 C   0  0  0  0  0  0  0  0  0  0  0  0
    4.5893   -0.6729    0.0000 C   0  0  0  0  0  0  0  0  0  0  0  0
    1.1445   -2.6627    0.0000 C   0  0  0  0  0  0  0  0  0  0  0  0
    3.4449   -2.6627    0.0000 C   0  0  0  0  0  0  0  0  0  0  0  0
    0.0000   -2.0071    0.0000 C   0  0  0  0  0  0  0  0  0  0  0  0
    4.5893   -2.0071    0.0000 C   0  0  0  0  0  0  0  0  0  0  0  0
    5.7510   -0.0000    0.0000 C   0  0  0  0  0  0  0  0  0  0  0  0
  1  2  2  0  0  0  0 
  1  3  1  0  0  0  0 
  1  4  1  0  0  0  0 
  2  5  1  0  0  0  0 
  3  6  2  0  0  0  0 
  4  7  2  0  0  0  0 
  4  8  1  0  0  0  0 
  5  9  2  0  0  0  0 
  6 10  1  0  0  0  0 
  6 11  1  0  0  0  0 
  7  9  1  0  0  0  0 
  8 10  2  0  0  0  0 
M  END
> <Name>
2-METHYLNAPHTHALENE

> <Source>
DSSTox2DMolFile

> <Tox>
241.1

> <CAS>
91-57-6

$$$$

  CDK

 11 12  0  0  0  0  0  0  0  0999 V2000
    3.4609    1.5047    0.0000 C   0  0  0  0  0  0  0  0  0  0  0  0
    4.3136    2.0063    0.0000 S   0  0  0  0  0  0  0  0  0  0  0  0
    2.6082    2.0063    0.0000 C   0  0  0  0  0  0  0  0  0  0  0  0
    3.4609    0.5016    0.0000 C   0  0  0  0  0  0  0  0  0  0  0  0
    1.7054    1.5047    0.0000 C   0  0  0  0  0  0  0  0  0  0  0  0
    2.6082    0.0000    0.0000 C   0  0  0  0  0  0  0  0  0  0  0  0
    1.7054    0.5016    0.0000 C   0  0  0  0  0  0  0  0  0  0  0  0
    0.8527    2.0063    0.0000 C   0  0  0  0  0  0  0  0  0  0  0  0
    0.8527    0.0000    0.0000 C   0  0  0  0  0  0  0  0  0  0  0  0
    0.0000    1.5047    0.0000 C   0  0  0  0  0  0  0  0  0  0  0  0
    0.0000    0.5016    0.0000 C   0  0  0  0  0  0  0  0  0  0  0  0
  1  2  1  0  0  0  0 
  3  1  2  0  0  0  0 
  1  4  1  0  0  0  0 
  5  3  1  0  0  0  0 
  4  6  2  0  0  0  0 
  5  7  2  0  0  0  0 
  8  5  1  0  0  0  0 
  6  7  1  0  0  0  0 
  7  9  1  0  0  0  0 
 10  8  2  0  0  0  0 
  9 11  2  0  0  0  0 
 11 10  1  0  0  0  0 
M  END
> <Name>
2-Naphthalenethiol

> <Source>
NIST2DMolFile

> <Tox>
288

> <CAS>
91-60-1

$$$$

  CDK

 11 12  0  0  0  0  0  0  0  0999 V2000
    5.7589   -2.6606    0.0000 C   0  0  0  0  0  0  0  0  0  0  0  0
    4.6071   -1.9983    0.0000 C   0  0  0  0  0  0  0  0  0  0  0  0
    3.4554   -2.6606    0.0000 C   0  0  0  0  0  0  0  0  0  0  0  0
    4.6071   -0.6680    0.0000 C   0  0  0  0  0  0  0  0  0  0  0  0
    2.3036   -1.9983    0.0000 C   0  0  0  0  0  0  0  0  0  0  0  0
    3.4554   -0.0000    0.0000 C   0  0  0  0  0  0  0  0  0  0  0  0
    1.1518   -2.6606    0.0000 C   0  0  0  0  0  0  0  0  0  0  0  0
    2.3036   -0.6680    0.0000 C   0  0  0  0  0  0  0  0  0  0  0  0
    0.0000   -1.9983    0.0000 C   0  0  0  0  0  0  0  0  0  0  0  0
    1.1518   -0.0000    0.0000 N   0  0  0  0  0  0  0  0  0  0  0  0
    0.0000   -0.6680    0.0000 C   0  0  0  0  0  0  0  0  0  0  0  0
  1  2  1  0  0  0  0 
  2  3  2  0  0  0  0 
  2  4  1  0  0  0  0 
  3  5  1  0  0  0  0 
  6  4  2  0  0  0  0 
  5  7  2  0  0  0  0 
  5  8  1  0  0  0  0 
  8  6  1  0  0  0  0 
  7  9  1  0  0  0  0 
 10  8  2  0  0  0  0 
  9 11  2  0  0  0  0 
 11 10  1  0  0  0  0 
M  END
> <Name>
6-METHYLQUINOLINE

> <Source>
DSSTox2DMolFile

> <Tox>
258.6

> <CAS>
91-62-3

$$$$

  CDK

 11 12  0  0  0  0  0  0  0  0999 V2000
   -3.4573   -0.7366   -0.0006 C   0  0  0  0  0  0  0  0  0  0  0  0
   -2.0632   -0.2087    0.0004 C   0  0  0  0  0  0  0  0  0  0  0  0
   -1.0469   -1.0676    0.0004 N   0  0  0  0  0  0  0  0  0  0  0  0
   -1.8510    1.2051    0.0003 C   0  0  0  0  0  0  0  0  0  0  0  0
    0.2594   -0.5885    0.0002 C   0  0  0  0  0  0  0  0  0  0  0  0
   -0.5787    1.6995    0.0001 C   0  0  0  0  0  0  0  0  0  0  0  0
    0.5237    0.7979    0.0000 C   0  0  0  0  0  0  0  0  0  0  0  0
    1.3371   -1.5165    0.0002 C   0  0  0  0  0  0  0  0  0  0  0  0
    1.8683    1.2463   -0.0002 C   0  0  0  0  0  0  0  0  0  0  0  0
    2.6259   -1.0505   -0.0001 C   0  0  0  0  0  0  0  0  0  0  0  0
    2.8937    0.3374   -0.0003 C   0  0  0  0  0  0  0  0  0  0  0  0
  1  2  1  0  0  0  0 
  3  2  2  0  0  0  0 
  2  4  1  0  0  0  0 
  3  5  1  0  0  0  0 
  4  6  2  0  0  0  0 
  7  5  1  0  0  0  0 
  8  5  2  0  0  0  0 
  6  7  1  0  0  0  0 
  7  9  2  0  0  0  0 
 10  8  1  0  0  0  0 
  9 11  1  0  0  0  0 
 11 10  2  0  0  0  0 
M  END
> <Name>
2-METHYLQUINOLINE

> <Source>
DougDB3DMolFile

> <Tox>
246.5

> <CAS>
91-63-4

$$$$

  CDK

 17 19  0  0  0  0  0  0  0  0999 V2000
    0.0000   -1.3307    0.0000 N   0  0  0  0  0  0  0  0  0  0  0  0
    1.3307   -1.3307    0.0000 C   0  0  0  0  0  0  0  0  0  0  0  0
    1.9906   -0.1839    0.0000 C   0  0  0  0  0  0  0  0  0  0  0  0
    1.9906   -2.4882    0.0000 C   0  0  0  0  0  0  0  0  0  0  0  0
    3.3213   -0.1839    0.0000 C   0  0  0  0  0  0  0  0  0  0  0  0
    3.3213   -2.4882    0.0000 C   0  0  0  0  0  0  0  0  0  0  0  0
    3.9920   -1.3307    0.0000 C   0  0  0  0  0  0  0  0  0  0  0  0
    5.3227   -1.3307    0.0000 C   0  0  0  0  0  0  0  0  0  0  0  0
    6.1016   -0.2596    0.0000 N   0  0  0  0  0  0  0  0  0  0  0  0
    6.1016   -2.4125    0.0000 S   0  0  0  0  0  0  0  0  0  0  0  0
    7.3673   -0.6707    0.0000 C   0  0  0  0  0  0  0  0  0  0  0  0
    7.3673   -2.0014    0.0000 C   0  0  0  0  0  0  0  0  0  0  0  0
    8.5141   -0.0000    0.0000 C   0  0  0  0  0  0  0  0  0  0  0  0
    8.5141   -2.6613    0.0000 C   0  0  0  0  0  0  0  0  0  0  0  0
    9.6717   -0.6707    0.0000 C   0  0  0  0  0  0  0  0  0  0  0  0
    9.6717   -2.0014    0.0000 C   0  0  0  0  0  0  0  0  0  0  0  0
   10.8184   -2.6613    0.0000 C   0  0  0  0  0  0  0  0  0  0  0  0
  1  2  1  0  0  0  0 
  2  3  2  0  0  0  0 
  2  4  1  0  0  0  0 
  3  5  1  0  0  0  0 
  6  4  2  0  0  0  0 
  5  7  2  0  0  0  0 
  7  6  1  0  0  0  0 
  7  8  1  0  0  0  0 
  8  9  2  0  0  0  0 
  8 10  1  0  0  0  0 
  9 11  1  0  0  0  0 
 12 10  1  0  0  0  0 
 11 13  2  0  0  0  0 
 11 12  1  0  0  0  0 
 14 12  2  0  0  0  0 
 13 15  1  0  0  0  0 
 16 14  1  0  0  0  0 
 15 16  2  0  0  0  0 
 16 17  1  0  0  0  0 
M  END
> <Name>
Benzenamine, 4-(6-methyl-2-benzothiazolyl)-

> <Source>
DSSTox2DMolFile

> <Tox>
434

> <CAS>
92-36-4

$$$$

  CDK

 14 15  0  0  0  0  0  0  0  0999 V2000
    9.3153   -1.1458    0.0000 N   0  0  0  0  0  0  0  0  0  0  0  0
    7.9832   -1.1458    0.0000 C   0  0  0  0  0  0  0  0  0  0  0  0
    7.3218   -2.3009    0.0000 C   0  0  0  0  0  0  0  0  0  0  0  0
    7.3218   -0.0000    0.0000 C   0  0  0  0  0  0  0  0  0  0  0  0
    5.9897   -2.3009    0.0000 C   0  0  0  0  0  0  0  0  0  0  0  0
    5.9897   -0.0000    0.0000 C   0  0  0  0  0  0  0  0  0  0  0  0
    5.3190   -1.1458    0.0000 C   0  0  0  0  0  0  0  0  0  0  0  0
    3.9963   -1.1458    0.0000 C   0  0  0  0  0  0  0  0  0  0  0  0
    3.3256   -2.3009    0.0000 C   0  0  0  0  0  0  0  0  0  0  0  0
    3.3256   -0.0000    0.0000 C   0  0  0  0  0  0  0  0  0  0  0  0
    1.9935   -2.3009    0.0000 C   0  0  0  0  0  0  0  0  0  0  0  0
    1.9935   -0.0000    0.0000 C   0  0  0  0  0  0  0  0  0  0  0  0
    1.3321   -1.1458    0.0000 C   0  0  0  0  0  0  0  0  0  0  0  0
    0.0000   -1.1458    0.0000 N   0  0  0  0  0  0  0  0  0  0  0  0
  1  2  1  0  0  0  0 
  2  3  2  0  0  0  0 
  2  4  1  0  0  0  0 
  3  5  1  0  0  0  0 
  6  4  2  0  0  0  0 
  5  7  2  0  0  0  0 
  7  6  1  0  0  0  0 
  7  8  1  0  0  0  0 
  8  9  2  0  0  0  0 
  8 10  1  0  0  0  0 
  9 11  1  0  0  0  0 
 12 10  2  0  0  0  0 
 11 13  2  0  0  0  0 
 13 12  1  0  0  0  0 
 13 14  1  0  0  0  0 
M  END
> <Name>
BENZIDINE

> <Source>
DSSTox2DMolFile

> <Tox>
401

> <CAS>
92-87-5

$$$$

  CDK

 18 20  0  0  0  0  0  0  0  0999 V2000
    2.6689   -1.1696    0.0000 C   0  0  0  0  0  0  0  0  0  0  0  0
    3.9661   -1.1696    0.0000 C   0  0  0  0  0  0  0  0  0  0  0  0
    1.9884   -0.0319    0.0000 C   0  0  0  0  0  0  0  0  0  0  0  0
    1.9884   -2.3393    0.0000 C   0  0  0  0  0  0  0  0  0  0  0  0
    4.6466   -2.3074    0.0000 C   0  0  0  0  0  0  0  0  0  0  0  0
    4.6466   -0.0000    0.0000 C   0  0  0  0  0  0  0  0  0  0  0  0
    0.6699   -0.0319    0.0000 C   0  0  0  0  0  0  0  0  0  0  0  0
    0.6699   -2.3393    0.0000 C   0  0  0  0  0  0  0  0  0  0  0  0
    5.9545   -2.3074    0.0000 C   0  0  0  0  0  0  0  0  0  0  0  0
    5.9545   -0.0000    0.0000 C   0  0  0  0  0  0  0  0  0  0  0  0
    0.0000   -1.1696    0.0000 C   0  0  0  0  0  0  0  0  0  0  0  0
    6.6350   -1.1696    0.0000 C   0  0  0  0  0  0  0  0  0  0  0  0
    7.9641   -1.1696    0.0000 C   0  0  0  0  0  0  0  0  0  0  0  0
    8.6127   -2.3074    0.0000 C   0  0  0  0  0  0  0  0  0  0  0  0
    8.6127   -0.0000    0.0000 C   0  0  0  0  0  0  0  0  0  0  0  0
    9.9631   -2.3074    0.0000 C   0  0  0  0  0  0  0  0  0  0  0  0
    9.9631   -0.0000    0.0000 C   0  0  0  0  0  0  0  0  0  0  0  0
   10.6330   -1.1377    0.0000 C   0  0  0  0  0  0  0  0  0  0  0  0
  1  2  1  0  0  0  0 
  1  3  2  0  0  0  0 
  1  4  1  0  0  0  0 
  2  5  2  0  0  0  0 
  2  6  1  0  0  0  0 
  3  7  1  0  0  0  0 
  4  8  2  0  0  0  0 
  5  9  1  0  0  0  0 
  6 10  2  0  0  0  0 
  7 11  2  0  0  0  0 
  8 11  1  0  0  0  0 
  9 12  2  0  0  0  0 
 10 12  1  0  0  0  0 
 12 13  1  0  0  0  0 
 13 14  2  0  0  0  0 
 13 15  1  0  0  0  0 
 14 16  1  0  0  0  0 
 15 17  2  0  0  0  0 
 16 18  2  0  0  0  0 
 17 18  1  0  0  0  0 
M  END
> <Name>
1,1':4',1''-TERPHENYL

> <Source>
DSSTox2DMolFile

> <Tox>
376

> <CAS>
92-94-4

$$$$

  CDK

 10 10  0  0  0  0  0  0  0  0999 V2000
    0.0000    3.4981    0.0000 C   0  0  0  0  0  0  0  0  0  0  0  0
    0.0000    2.0988    0.0000 C   0  0  0  0  0  0  0  0  0  0  0  0
    1.2127    4.1977    0.0000 C   0  0  0  0  0  0  0  0  0  0  0  0
    1.2127    1.3992    0.0000 C   0  0  0  0  0  0  0  0  0  0  0  0
    2.4253    3.4981    0.0000 C   0  0  0  0  0  0  0  0  0  0  0  0
    1.2127    5.5969    0.0000 N   0  0  0  0  0  0  0  0  0  0  0  0
    2.4253    2.0988    0.0000 C   0  0  0  0  0  0  0  0  0  0  0  0
    1.2127    0.0000    0.0000 Cl  0  0  0  0  0  0  0  0  0  0  0  0
    3.6380    4.1977    0.0000 O   0  0  0  0  0  0  0  0  0  0  0  0
    4.8506    3.4981    0.0000 C   0  0  0  0  0  0  0  0  0  0  0  0
  1  2  2  0  0  0  0 
  1  3  1  0  0  0  0 
  2  4  1  0  0  0  0 
  5  3  2  0  0  0  0 
  3  6  1  0  0  0  0 
  4  7  2  0  0  0  0 
  4  8  1  0  0  0  0 
  7  5  1  0  0  0  0 
  5  9  1  0  0  0  0 
  9 10  1  0  0  0  0 
M  END
> <Name>
Benzenamine, 4-chloro-2-methoxy-

> <Source>
IndexNet2DMolFile

> <Tox>
260

> <CAS>
93-50-5

$$$$

  CDK

 10 10  0  0  0  0  0  0  0  0999 V2000
    1.0084    0.0000    0.0000 C   0  0  0  0  0  0  0  0  0  0  0  0
    1.5126    0.8571    0.0000 C   0  0  0  0  0  0  0  0  0  0  0  0
    0.0000    0.0000    0.0000 C   0  0  0  0  0  0  0  0  0  0  0  0
    1.0084    1.7142    0.0000 O   0  0  0  0  0  0  0  0  0  0  0  0
    2.5209    0.8571    0.0000 C   0  0  0  0  0  0  0  0  0  0  0  0
    3.0251    1.7142    0.0000 C   0  0  0  0  0  0  0  0  0  0  0  0
    3.0251    0.0000    0.0000 C   0  0  0  0  0  0  0  0  0  0  0  0
    4.0335    1.7142    0.0000 C   0  0  0  0  0  0  0  0  0  0  0  0
    4.0335    0.0000    0.0000 C   0  0  0  0  0  0  0  0  0  0  0  0
    4.5377    0.8571    0.0000 C   0  0  0  0  0  0  0  0  0  0  0  0
  1  2  1  0  0  0  0 
  1  3  1  0  0  0  0 
  2  4  2  0  0  0  0 
  2  5  1  0  0  0  0 
  6  5  2  0  0  0  0 
  5  7  1  0  0  0  0 
  8  6  1  0  0  0  0 
  7  9  2  0  0  0  0 
 10  8  2  0  0  0  0 
  9 10  1  0  0  0  0 
M  END
> <Name>
PROPIOPHENONE

> <Source>
NIST2DMolFile

> <Tox>
217.5

> <CAS>
93-55-0

$$$$

  CDK

 11 11  0  0  0  0  0  0  0  0999 V2000
    0.0000    2.0988    0.0000 C   0  0  0  0  0  0  0  0  0  0  0  0
    0.0000    0.6996    0.0000 C   0  0  0  0  0  0  0  0  0  0  0  0
    1.2127    2.7984    0.0000 C   0  0  0  0  0  0  0  0  0  0  0  0
    1.2127    0.0000    0.0000 C   0  0  0  0  0  0  0  0  0  0  0  0
    2.4253    2.0988    0.0000 C   0  0  0  0  0  0  0  0  0  0  0  0
    2.4253    0.6996    0.0000 C   0  0  0  0  0  0  0  0  0  0  0  0
    3.6380    2.7984    0.0000 C   0  0  0  0  0  0  0  0  0  0  0  0
    4.8506    2.0988    0.0000 C   0  0  0  0  0  0  0  0  0  0  0  0
    3.6380    4.1977    0.0000 C   0  0  0  0  0  0  0  0  0  0  0  0
    6.0633    2.7984    0.0000 N   0  0  0  0  0  0  0  0  0  0  0  0
    7.2760    2.0988    0.0000 C   0  0  0  0  0  0  0  0  0  0  0  0
  1  2  2  0  0  0  0 
  1  3  1  0  0  0  0 
  2  4  1  0  0  0  0 
  5  3  2  0  0  0  0 
  4  6  2  0  0  0  0 
  6  5  1  0  0  0  0 
  5  7  1  0  0  0  0 
  7  8  1  0  0  0  0 
  7  9  1  0  0  0  0 
  8 10  1  0  0  0  0 
 10 11  1  0  0  0  0 
M  END
> <Name>
BENZENEETHANAMINE, N,b-DIMETHYL-

> <Source>
IndexNet2DMolFile

> <Tox>
207.5

> <CAS>
93-88-9

$$$$

  CDK

 15 16  0  0  0  0  0  0  0  0999 V2000
    3.4635    1.4844    0.0000 O   0  0  0  0  0  0  0  0  0  0  0  0
    2.5729    1.9792    0.0000 C   0  0  0  0  0  0  0  0  0  0  0  0
    4.3047    1.9297    0.0000 C   0  0  0  0  0  0  0  0  0  0  0  0
    2.5729    2.9687    0.0000 O   0  0  0  0  0  0  0  0  0  0  0  0
    1.7318    1.5338    0.0000 C   0  0  0  0  0  0  0  0  0  0  0  0
    4.3047    2.9687    0.0000 C   0  0  0  0  0  0  0  0  0  0  0  0
    5.1458    1.4349    0.0000 C   0  0  0  0  0  0  0  0  0  0  0  0
    0.8906    2.0286    0.0000 C   0  0  0  0  0  0  0  0  0  0  0  0
    1.7318    0.4948    0.0000 C   0  0  0  0  0  0  0  0  0  0  0  0
    5.1953    3.4635    0.0000 C   0  0  0  0  0  0  0  0  0  0  0  0
    6.0364    1.9297    0.0000 C   0  0  0  0  0  0  0  0  0  0  0  0
    0.0000    1.5338    0.0000 C   0  0  0  0  0  0  0  0  0  0  0  0
    0.8411    0.0000    0.0000 C   0  0  0  0  0  0  0  0  0  0  0  0
    6.0364    2.9193    0.0000 C   0  0  0  0  0  0  0  0  0  0  0  0
    0.0000    0.5443    0.0000 C   0  0  0  0  0  0  0  0  0  0  0  0
  1  2  1  0  0  0  0 
  1  3  1  0  0  0  0 
  2  4  2  0  0  0  0 
  2  5  1  0  0  0  0 
  3  6  2  0  0  0  0 
  7  3  1  0  0  0  0 
  8  5  2  0  0  0  0 
  5  9  1  0  0  0  0 
  6 10  1  0  0  0  0 
 11  7  2  0  0  0  0 
 12  8  1  0  0  0  0 
  9 13  2  0  0  0  0 
 10 14  2  0  0  0  0 
 14 11  1  0  0  0  0 
 15 12  2  0  0  0  0 
 13 15  1  0  0  0  0 
M  END
> <Name>
PHENYL BENZOATE

> <Source>
NIST2DMolFile

> <Tox>
314

> <CAS>
93-99-2

$$$$

  CDK

 12 12  0  0  0  0  0  0  0  0999 V2000
    3.0133    1.7365    0.0000 C   0  0  0  0  0  0  0  0  0  0  0  0
    2.0429    1.7365    0.0000 C   0  0  0  0  0  0  0  0  0  0  0  0
    3.5241    2.5537    0.0000 C   0  0  0  0  0  0  0  0  0  0  0  0
    1.5322    2.5537    0.0000 C   0  0  0  0  0  0  0  0  0  0  0  0
    3.0133    3.4730    0.0000 C   0  0  0  0  0  0  0  0  0  0  0  0
    4.5455    2.5537    0.0000 C   0  0  0  0  0  0  0  0  0  0  0  0
    2.0429    3.4730    0.0000 C   0  0  0  0  0  0  0  0  0  0  0  0
    0.5107    2.5537    0.0000 C   0  0  0  0  0  0  0  0  0  0  0  0
    0.0000    1.7365    0.0000 O   0  0  0  0  0  0  0  0  0  0  0  0
    0.0000    3.4219    0.0000 O   0  0  0  0  0  0  0  0  0  0  0  0
    0.5107    0.8682    0.0000 C   0  0  0  0  0  0  0  0  0  0  0  0
    0.0000    0.0000    0.0000 C   0  0  0  0  0  0  0  0  0  0  0  0
  2  1  2  0  0  0  0 
  1  3  1  0  0  0  0 
  4  2  1  0  0  0  0 
  3  5  2  0  0  0  0 
  3  6  1  0  0  0  0 
  7  4  2  0  0  0  0 
  4  8  1  0  0  0  0 
  5  7  1  0  0  0  0 
  8  9  1  0  0  0  0 
  8 10  2  0  0  0  0 
  9 11  1  0  0  0  0 
 11 12  1  0  0  0  0 
M  END
> <Name>
4-Methylbenzoic acid ethyl ester

> <Source>
NIST2DMolFile

> <Tox>
232

> <CAS>
94-08-6

$$$$

  CDK

 10 10  0  0  0  0  0  0  0  0999 V2000
    0.9996    0.0000    0.0000 C   0  0  0  0  0  0  0  0  0  0  0  0
    1.4994    0.8497    0.0000 N   0  0  0  0  0  0  0  0  0  0  0  0
    0.0000    0.0000    0.0000 C   0  0  0  0  0  0  0  0  0  0  0  0
    2.4991    0.8497    0.0000 C   0  0  0  0  0  0  0  0  0  0  0  0
    2.9989    1.7493    0.0000 C   0  0  0  0  0  0  0  0  0  0  0  0
    2.9989    0.0000    0.0000 C   0  0  0  0  0  0  0  0  0  0  0  0
    2.4991    2.5990    0.0000 C   0  0  0  0  0  0  0  0  0  0  0  0
    3.9985    1.7493    0.0000 C   0  0  0  0  0  0  0  0  0  0  0  0
    3.9985    0.0000    0.0000 C   0  0  0  0  0  0  0  0  0  0  0  0
    4.4983    0.8497    0.0000 C   0  0  0  0  0  0  0  0  0  0  0  0
  1  2  1  0  0  0  0 
  1  3  1  0  0  0  0 
  2  4  1  0  0  0  0 
  5  4  2  0  0  0  0 
  4  6  1  0  0  0  0 
  5  7  1  0  0  0  0 
  8  5  1  0  0  0  0 
  6  9  2  0  0  0  0 
 10  8  2  0  0  0  0 
  9 10  1  0  0  0  0 
M  END
> <Name>
Benzenamine, N-ethyl-2-methyl-

> <Source>
NIST2DMolFile

> <Tox>
216

> <CAS>
94-68-8

$$$$

  CDK

 10 10  0  0  0  0  0  0  0  0999 V2000
   -1.3812   -0.8746   -0.3143 N   0  0  0  0  0  0  0  0  0  0  0  0
   -2.5429   -0.2569   -0.0223 C   0  0  0  0  0  0  0  0  0  0  0  0
   -0.1700   -0.1872   -0.1791 C   0  0  0  0  0  0  0  0  0  0  0  0
   -2.5337    0.8596    0.4515 O   0  0  0  0  0  0  0  0  0  0  0  0
    1.0089   -0.8897    0.0320 C   0  0  0  0  0  0  0  0  0  0  0  0
   -0.1436    1.1990   -0.2615 C   0  0  0  0  0  0  0  0  0  0  0  0
    0.9858   -2.3942    0.1159 C   0  0  0  0  0  0  0  0  0  0  0  0
    2.2031   -0.2082    0.1645 C   0  0  0  0  0  0  0  0  0  0  0  0
    1.0534    1.8745   -0.1282 C   0  0  0  0  0  0  0  0  0  0  0  0
    2.2252    1.1721    0.0872 C   0  0  0  0  0  0  0  0  0  0  0  0
  1  2  1  0  0  0  0 
  1  3  1  0  0  0  0 
  2  4  2  0  0  0  0 
  3  5  2  0  0  0  0 
  3  6  1  0  0  0  0 
  5  7  1  0  0  0  0 
  5  8  1  0  0  0  0 
  6  9  2  0  0  0  0 
  8 10  2  0  0  0  0 
  9 10  1  0  0  0  0 
M  END
> <Name>
Formamide, N-(2-methylphenyl)-

> <Source>
NIH3DMolFile

> <Tox>
288

> <CAS>
94-69-9

$$$$

  CDK

  9 10  0  0  0  0  0  0  0  0999 V2000
    1.7560    0.5017    0.0000 C   0  0  0  0  0  0  0  0  0  0  0  0
    1.7560    1.5052    0.0000 C   0  0  0  0  0  0  0  0  0  0  0  0
    2.7093    0.2007    0.0000 C   0  0  0  0  0  0  0  0  0  0  0  0
    0.9031    0.0000    0.0000 C   0  0  0  0  0  0  0  0  0  0  0  0
    2.7093    1.8062    0.0000 S   0  0  0  0  0  0  0  0  0  0  0  0
    0.9031    2.0069    0.0000 C   0  0  0  0  0  0  0  0  0  0  0  0
    3.2612    1.0035    0.0000 C   0  0  0  0  0  0  0  0  0  0  0  0
    0.0000    0.5017    0.0000 C   0  0  0  0  0  0  0  0  0  0  0  0
    0.0000    1.5052    0.0000 C   0  0  0  0  0  0  0  0  0  0  0  0
  1  2  2  0  0  0  0 
  3  1  1  0  0  0  0 
  1  4  1  0  0  0  0 
  2  5  1  0  0  0  0 
  6  2  1  0  0  0  0 
  7  3  2  0  0  0  0 
  4  8  2  0  0  0  0 
  5  7  1  0  0  0  0 
  9  6  2  0  0  0  0 
  8  9  1  0  0  0  0 
M  END
> <Name>
BENZO(B)THIOPHENE

> <Source>
NIST2DMolFile

> <Tox>
221

> <CAS>
95-15-8

$$$$

  CDK

  8  8  0  0  0  0  0  0  0  0999 V2000
    1.1565   -1.9940    0.0000 C   0  0  0  0  0  0  0  0  0  0  0  0
    1.1565   -3.3299    0.0000 C   0  0  0  0  0  0  0  0  0  0  0  0
    2.3010   -1.3360    0.0000 C   0  0  0  0  0  0  0  0  0  0  0  0
    0.0000   -1.3360    0.0000 C   0  0  0  0  0  0  0  0  0  0  0  0
    2.3010   -3.9879    0.0000 C   0  0  0  0  0  0  0  0  0  0  0  0
    3.4575   -1.9940    0.0000 C   0  0  0  0  0  0  0  0  0  0  0  0
    2.3010   -0.0000    0.0000 Cl  0  0  0  0  0  0  0  0  0  0  0  0
    3.4575   -3.3299    0.0000 C   0  0  0  0  0  0  0  0  0  0  0  0
  1  2  1  0  0  0  0 
  1  3  2  0  0  0  0 
  1  4  1  0  0  0  0 
  2  5  2  0  0  0  0 
  3  6  1  0  0  0  0 
  3  7  1  0  0  0  0 
  5  8  1  0  0  0  0 
  6  8  2  0  0  0  0 
M  END
> <Name>
2-CHLOROTOLUENE

> <Source>
DSSTox2DMolFile

> <Tox>
159

> <CAS>
95-49-8

$$$$

  CDK

  8  8  0  0  0  0  0  0  0  0999 V2000
    0.0000   -2.3027    0.0000 N   0  0  0  0  0  0  0  0  0  0  0  0
    1.3289   -2.3027    0.0000 C   0  0  0  0  0  0  0  0  0  0  0  0
    1.9954   -1.1533    0.0000 C   0  0  0  0  0  0  0  0  0  0  0  0
    1.9954   -3.4560    0.0000 C   0  0  0  0  0  0  0  0  0  0  0  0
    1.3289   -0.0000    0.0000 Cl  0  0  0  0  0  0  0  0  0  0  0  0
    3.3243   -1.1533    0.0000 C   0  0  0  0  0  0  0  0  0  0  0  0
    3.3243   -3.4560    0.0000 C   0  0  0  0  0  0  0  0  0  0  0  0
    3.9907   -2.3027    0.0000 C   0  0  0  0  0  0  0  0  0  0  0  0
  1  2  1  0  0  0  0 
  2  3  2  0  0  0  0 
  2  4  1  0  0  0  0 
  3  5  1  0  0  0  0 
  3  6  1  0  0  0  0 
  7  4  2  0  0  0  0 
  6  8  2  0  0  0  0 
  8  7  1  0  0  0  0 
M  END
> <Name>
2-CHLOROANILINE

> <Source>
DSSTox2DMolFile

> <Tox>
208.8

> <CAS>
95-51-2

$$$$

  CDK

  9  9  0  0  0  0  0  0  0  0999 V2000
    2.3151   -1.9965    0.0000 C   0  0  0  0  0  0  0  0  0  0  0  0
    2.3151   -3.3240    0.0000 C   0  0  0  0  0  0  0  0  0  0  0  0
    1.1629   -1.3275    0.0000 C   0  0  0  0  0  0  0  0  0  0  0  0
    1.1629   -3.9825    0.0000 C   0  0  0  0  0  0  0  0  0  0  0  0
    3.4621   -3.9825    0.0000 C   0  0  0  0  0  0  0  0  0  0  0  0
    0.0000   -1.9965    0.0000 C   0  0  0  0  0  0  0  0  0  0  0  0
    1.1629   -0.0000    0.0000 O   0  0  0  0  0  0  0  0  0  0  0  0
    0.0000   -3.3240    0.0000 C   0  0  0  0  0  0  0  0  0  0  0  0
    1.1629   -5.3100    0.0000 C   0  0  0  0  0  0  0  0  0  0  0  0
  1  2  1  0  0  0  0 
  1  3  2  0  0  0  0 
  2  4  2  0  0  0  0 
  2  5  1  0  0  0  0 
  3  6  1  0  0  0  0 
  3  7  1  0  0  0  0 
  4  8  1  0  0  0  0 
  4  9  1  0  0  0  0 
  6  8  2  0  0  0  0 
M  END
> <Name>
3,4-DIMETHYLPHENOL

> <Source>
DSSTox2DMolFile

> <Tox>
227

> <CAS>
95-65-8

$$$$

  CDK

  9  9  0  0  0  0  0  0  0  0999 V2000
    0.0000   -2.6589    0.0000 N   0  0  0  0  0  0  0  0  0  0  0  0
    1.1520   -1.9953    0.0000 C   0  0  0  0  0  0  0  0  0  0  0  0
    1.1520   -0.6636    0.0000 C   0  0  0  0  0  0  0  0  0  0  0  0
    2.3041   -2.6589    0.0000 C   0  0  0  0  0  0  0  0  0  0  0  0
    2.3041   -0.0000    0.0000 C   0  0  0  0  0  0  0  0  0  0  0  0
    0.0000   -0.0000    0.0000 C   0  0  0  0  0  0  0  0  0  0  0  0
    3.4561   -1.9953    0.0000 C   0  0  0  0  0  0  0  0  0  0  0  0
    3.4561   -0.6636    0.0000 C   0  0  0  0  0  0  0  0  0  0  0  0
    4.6082   -2.6589    0.0000 C   0  0  0  0  0  0  0  0  0  0  0  0
  1  2  1  0  0  0  0 
  2  3  2  0  0  0  0 
  2  4  1  0  0  0  0 
  3  5  1  0  0  0  0 
  3  6  1  0  0  0  0 
  7  4  2  0  0  0  0 
  5  8  2  0  0  0  0 
  8  7  1  0  0  0  0 
  7  9  1  0  0  0  0 
M  END
> <Name>
2,5-DIMETHYLANILINE

> <Source>
DSSTox2DMolFile

> <Tox>
214

> <CAS>
95-78-3

$$$$

  CDK

  9  9  0  0  0  0  0  0  0  0999 V2000
    4.6082   -2.6589    0.0000 N   0  0  0  0  0  0  0  0  0  0  0  0
    3.4561   -1.9953    0.0000 C   0  0  0  0  0  0  0  0  0  0  0  0
    2.3041   -2.6589    0.0000 C   0  0  0  0  0  0  0  0  0  0  0  0
    3.4561   -0.6636    0.0000 C   0  0  0  0  0  0  0  0  0  0  0  0
    1.1520   -1.9953    0.0000 C   0  0  0  0  0  0  0  0  0  0  0  0
    2.3041   -0.0000    0.0000 C   0  0  0  0  0  0  0  0  0  0  0  0
    4.6082   -0.0000    0.0000 C   0  0  0  0  0  0  0  0  0  0  0  0
    1.1520   -0.6636    0.0000 C   0  0  0  0  0  0  0  0  0  0  0  0
    0.0000   -2.6589    0.0000 Cl  0  0  0  0  0  0  0  0  0  0  0  0
  1  2  1  0  0  0  0 
  2  3  2  0  0  0  0 
  2  4  1  0  0  0  0 
  3  5  1  0  0  0  0 
  6  4  2  0  0  0  0 
  4  7  1  0  0  0  0 
  5  8  2  0  0  0  0 
  5  9  1  0  0  0  0 
  8  6  1  0  0  0  0 
M  END
> <Name>
5-CHLORO-O-TOLUIDINE

> <Source>
DSSTox2DMolFile

> <Tox>
239

> <CAS>
95-79-4

$$$$

  CDK

  9  9  0  0  0  0  0  0  0  0999 V2000
    0.0000   -2.6589    0.0000 N   0  0  0  0  0  0  0  0  0  0  0  0
    1.1520   -1.9953    0.0000 C   0  0  0  0  0  0  0  0  0  0  0  0
    1.1520   -0.6636    0.0000 C   0  0  0  0  0  0  0  0  0  0  0  0
    2.3041   -2.6589    0.0000 C   0  0  0  0  0  0  0  0  0  0  0  0
    2.3041   -0.0000    0.0000 C   0  0  0  0  0  0  0  0  0  0  0  0
    0.0000   -0.0000    0.0000 C   0  0  0  0  0  0  0  0  0  0  0  0
    3.4561   -1.9953    0.0000 C   0  0  0  0  0  0  0  0  0  0  0  0
    3.4561   -0.6636    0.0000 C   0  0  0  0  0  0  0  0  0  0  0  0
    4.6082   -2.6589    0.0000 N   0  0  0  0  0  0  0  0  0  0  0  0
  1  2  1  0  0  0  0 
  2  3  2  0  0  0  0 
  2  4  1  0  0  0  0 
  3  5  1  0  0  0  0 
  3  6  1  0  0  0  0 
  7  4  2  0  0  0  0 
  5  8  2  0  0  0  0 
  8  7  1  0  0  0  0 
  7  9  1  0  0  0  0 
M  END
> <Name>
2,4-TOLUENEDIAMINE

> <Source>
DSSTox2DMolFile

> <Tox>
292

> <CAS>
95-80-7

$$$$

  CDK

  9  9  0  0  0  0  0  0  0  0999 V2000
    2.6131    0.5025    0.0000 C   0  0  0  0  0  0  0  0  0  0  0  0
    2.6131    1.5075    0.0000 C   0  0  0  0  0  0  0  0  0  0  0  0
    1.7588    0.0503    0.0000 C   0  0  0  0  0  0  0  0  0  0  0  0
    1.7588    2.0101    0.0000 C   0  0  0  0  0  0  0  0  0  0  0  0
    3.5176    2.0101    0.0000 Cl  0  0  0  0  0  0  0  0  0  0  0  0
    0.9045    0.5025    0.0000 C   0  0  0  0  0  0  0  0  0  0  0  0
    0.9045    1.5075    0.0000 C   0  0  0  0  0  0  0  0  0  0  0  0
    1.7588    3.0151    0.0000 N   0  0  0  0  0  0  0  0  0  0  0  0
    0.0000    0.0000    0.0000 C   0  0  0  0  0  0  0  0  0  0  0  0
  2  1  2  0  0  0  0 
  1  3  1  0  0  0  0 
  4  2  1  0  0  0  0 
  2  5  1  0  0  0  0 
  3  6  2  0  0  0  0 
  7  4  2  0  0  0  0 
  4  8  1  0  0  0  0 
  6  7  1  0  0  0  0 
  6  9  1  0  0  0  0 
M  END
> <Name>
2-CHLOR-5-METHYL-ANILINE

> <Source>
NIST2DMolFile

> <Tox>
229

> <CAS>
95-81-8

$$$$

  CDK

 10  9  0  0  0  0  0  0  0  0999 V2000
    0.7651   -0.8945    0.0001 C   0  0  0  0  0  0  0  0  0  0  0  0
   -0.7652   -0.8946   -0.0001 C   0  0  0  0  0  0  0  0  0  0  0  0
    1.4639   -1.8841    0.0002 O   0  0  0  0  0  0  0  0  0  0  0  0
    1.3198    0.3433    0.0000 O   0  0  0  0  0  0  0  0  0  0  0  0
   -1.4637   -1.8844   -0.0005 O   0  0  0  0  0  0  0  0  0  0  0  0
   -1.3199    0.3432    0.0002 O   0  0  0  0  0  0  0  0  0  0  0  0
    2.7485    0.4460    0.0004 C   0  0  0  0  0  0  0  0  0  0  0  0
   -2.7486    0.4461    0.0003 C   0  0  0  0  0  0  0  0  0  0  0  0
    3.0669    1.9280   -0.0004 C   0  0  0  0  0  0  0  0  0  0  0  0
   -3.0667    1.9281   -0.0001 C   0  0  0  0  0  0  0  0  0  0  0  0
  1  2  1  0  0  0  0 
  1  3  2  0  0  0  0 
  1  4  1  0  0  0  0 
  2  5  2  0  0  0  0 
  2  6  1  0  0  0  0 
  4  7  1  0  0  0  0 
  6  8  1  0  0  0  0 
  7  9  1  0  0  0  0 
  8 10  1  0  0  0  0 
M  END
> <Name>
ETHYL OXALATE

> <Source>
DougDB3DMolFile

> <Tox>
185.7

> <CAS>
95-92-1

$$$$

  CDK

  8  8  0  0  0  0  0  0  0  0999 V2000
    0.0000    0.0000    0.0000 Cl  0  0  0  0  0  0  0  0  0  0  0  0
    1.7200    0.1000   -0.1800 C   0  0  0  0  0  0  0  0  0  0  0  0
    2.6600   -1.0200   -0.3000 C   0  0  0  0  0  0  0  0  0  0  0  0
    2.4400    1.2200   -0.2000 C   0  0  0  0  0  0  0  0  0  0  0  0
    2.3400   -2.2000   -0.3200 O   0  0  0  0  0  0  0  0  0  0  0  0
    3.8800   -0.5200   -0.4200 O   0  0  0  0  0  0  0  0  0  0  0  0
    3.8400    0.8000   -0.3600 C   0  0  0  0  0  0  0  0  0  0  0  0
    4.7800    1.5600   -0.4200 O   0  0  0  0  0  0  0  0  0  0  0  0
  1  2  1  0  0  0  0 
  2  3  1  0  0  0  0 
  2  4  2  0  0  0  0 
  3  5  2  0  0  0  0 
  3  6  1  0  0  0  0 
  7  4  1  0  0  0  0 
  6  7  1  0  0  0  0 
  7  8  2  0  0  0  0 
M  END
> <Name>
2,5-Furandione, 3-chloro-

> <Source>
NIH3DMolFile

> <Tox>
196

> <CAS>
96-02-6

$$$$

  CDK

  6  5  0  0  0  0  0  0  0  0999 V2000
    0.0000    0.9794    0.0000 Br  0  0  0  0  0  0  0  0  0  0  0  0
    0.0000    0.0000    0.0000 C   0  0  0  0  0  0  0  0  0  0  0  0
    1.0309    0.0000    0.0000 C   0  0  0  0  0  0  0  0  0  0  0  0
    1.0309    0.9794    0.0000 Br  0  0  0  0  0  0  0  0  0  0  0  0
    2.0619    0.0000    0.0000 C   0  0  0  0  0  0  0  0  0  0  0  0
    2.0619    0.9794    0.0000 Br  0  0  0  0  0  0  0  0  0  0  0  0
  1  2  1  0  0  0  0 
  2  3  1  0  0  0  0 
  3  4  1  0  0  0  0 
  3  5  1  0  0  0  0 
  5  6  1  0  0  0  0 
M  END
> <Name>
Propane, 1,2,3-tribromo-

> <Source>
NIST2DMolFile

> <Tox>
222.1

> <CAS>
96-11-7

$$$$

  CDK

  6  5  0  0  0  0  0  0  0  0999 V2000
    2.1284    2.6393    1.4703 C   0  0  0  0  0  0  0  0  0  0  0  0
    2.1067    2.1157    2.9080 C   0  0  0  0  0  0  0  0  0  0  0  0
    0.7862    3.1835    1.0336 C   0  0  0  0  0  0  0  0  0  0  0  0
    3.5145    2.0585    3.5074 C   0  0  0  0  0  0  0  0  0  0  0  0
    1.4171    0.7638    2.9936 C   0  0  0  0  0  0  0  0  0  0  0  0
    4.4812    1.1700    2.7569 C   0  0  0  0  0  0  0  0  0  0  0  0
  1  2  1  0  0  0  0 
  1  3  1  0  0  0  0 
  2  4  1  0  0  0  0 
  2  5  1  0  0  0  0 
  4  6  1  0  0  0  0 
M  END
> <Name>
3-METHYLPENTANE

> <Source>
NIST3DMolFile

> <Tox>
63.2

> <CAS>
96-14-0

$$$$

  CDK

  6  5  0  0  0  0  0  0  0  0999 V2000
   -0.3761    0.8850   -0.0718 C   0  0  0  0  0  0  0  0  0  0  0  0
    0.0458   -0.3839   -0.0571 C   0  0  0  0  0  0  0  0  0  0  0  0
   -2.0058    1.2535    0.0087 Cl  0  0  0  0  0  0  0  0  0  0  0  0
    1.4598   -0.8195   -0.1342 C   0  0  0  0  0  0  0  0  0  0  0  0
   -1.0665   -1.6529    0.0419 Cl  0  0  0  0  0  0  0  0  0  0  0  0
    2.5858    0.5396    0.0552 Cl  0  0  0  0  0  0  0  0  0  0  0  0
  1  2  2  0  0  0  0 
  1  3  1  0  0  0  0 
  2  4  1  0  0  0  0 
  2  5  1  0  0  0  0 
  4  6  1  0  0  0  0 
M  END
> <Name>
1,2,3-TRICHLOROPROPENE

> <Source>
DougDB3DMolFile

> <Tox>
142

> <CAS>
96-19-5

$$$$

  CDK

  6  5  0  0  0  0  0  0  0  0999 V2000
    0.0000    1.0024    0.0000 Cl  0  0  0  0  0  0  0  0  0  0  0  0
    0.9022    1.5036    0.0000 C   0  0  0  0  0  0  0  0  0  0  0  0
    1.7542    1.0024    0.0000 C   0  0  0  0  0  0  0  0  0  0  0  0
    2.6062    1.5036    0.0000 O   0  0  0  0  0  0  0  0  0  0  0  0
    1.7542    0.0000    0.0000 O   0  0  0  0  0  0  0  0  0  0  0  0
    3.4583    1.0024    0.0000 C   0  0  0  0  0  0  0  0  0  0  0  0
  1  2  1  0  0  0  0 
  2  3  1  0  0  0  0 
  3  4  1  0  0  0  0 
  3  5  2  0  0  0  0 
  4  6  1  0  0  0  0 
M  END
> <Name>
METHYL CHLOROACETATE

> <Source>
NIST2DMolFile

> <Tox>
129.5

> <CAS>
96-34-4

$$$$

  CDK

  6  6  0  0  0  0  0  0  0  0999 V2000
    3.4272   -0.3222    0.0000 O   0  0  0  0  0  0  0  0  0  0  0  0
    2.1489   -0.7574    0.0000 C   0  0  0  0  0  0  0  0  0  0  0  0
    1.7308   -2.0358    0.0000 C   0  0  0  0  0  0  0  0  0  0  0  0
    1.0522   -0.0000    0.0000 C   0  0  0  0  0  0  0  0  0  0  0  0
    0.4216   -2.0358    0.0000 C   0  0  0  0  0  0  0  0  0  0  0  0
    0.0000   -0.7574    0.0000 C   0  0  0  0  0  0  0  0  0  0  0  0
  1  2  1  0  0  0  0 
  2  3  1  0  0  0  0 
  2  4  1  0  0  0  0 
  3  5  1  0  0  0  0 
  4  6  1  0  0  0  0 
  6  5  1  0  0  0  0 
M  END
> <Name>
CYCLOPENTANOL

> <Source>
DSSTox2DMolFile

> <Tox>
140.4

> <CAS>
96-41-3

$$$$

  CDK

  6  6  0  0  0  0  0  0  0  0999 V2000
    0.8029    0.0000    0.0000 S   0  0  0  0  0  0  0  0  0  0  0  0
    1.6057    0.6021    0.0000 C   0  0  0  0  0  0  0  0  0  0  0  0
    0.0000    0.6021    0.0000 C   0  0  0  0  0  0  0  0  0  0  0  0
    1.3046    1.5555    0.0000 C   0  0  0  0  0  0  0  0  0  0  0  0
    2.4588    0.1004    0.0000 Cl  0  0  0  0  0  0  0  0  0  0  0  0
    0.3011    1.5555    0.0000 C   0  0  0  0  0  0  0  0  0  0  0  0
  2  1  1  0  0  0  0 
  1  3  1  0  0  0  0 
  4  2  2  0  0  0  0 
  2  5  1  0  0  0  0 
  3  6  2  0  0  0  0 
  6  4  1  0  0  0  0 
M  END
> <Name>
2-CHLOROTHIOPHENE

> <Source>
NIST2DMolFile

> <Tox>
128.3

> <CAS>
96-43-5

$$$$

  CDK

  6  6  0  0  0  0  0  0  0  0999 V2000
    0.0000   -1.0738    0.0000 O   0  0  0  0  0  0  0  0  0  0  0  0
    1.3304   -1.0738    0.0000 C   0  0  0  0  0  0  0  0  0  0  0  0
    2.1104   -0.0000    0.0000 C   0  0  0  0  0  0  0  0  0  0  0  0
    2.1104   -2.1509    0.0000 O   0  0  0  0  0  0  0  0  0  0  0  0
    3.3767   -0.4086    0.0000 C   0  0  0  0  0  0  0  0  0  0  0  0
    3.3767   -1.7390    0.0000 C   0  0  0  0  0  0  0  0  0  0  0  0
  1  2  2  0  0  0  0 
  2  3  1  0  0  0  0 
  2  4  1  0  0  0  0 
  3  5  1  0  0  0  0 
  6  4  1  0  0  0  0 
  5  6  1  0  0  0  0 
M  END
> <Name>
GAMMA-BUTYROLACTONE

> <Source>
DSSTox2DMolFile

> <Tox>
204

> <CAS>
96-48-0

$$$$

  CDK

  6  6  0  0  0  0  0  0  0  0999 V2000
    0.6856    1.9531    0.9905 C   0  0  0  0  0  0  0  0  0  0  0  0
    1.9889    1.8524    1.6413 N   0  0  0  0  0  0  0  0  0  0  0  0
    2.9323    0.8423    1.4078 C   0  0  0  0  0  0  0  0  0  0  0  0
    2.5169    2.7875    2.5423 C   0  0  0  0  0  0  0  0  0  0  0  0
    4.0481    1.1426    2.1768 C   0  0  0  0  0  0  0  0  0  0  0  0
    3.7900    2.3510    2.8816 C   0  0  0  0  0  0  0  0  0  0  0  0
  1  2  1  0  0  0  0 
  3  2  1  0  0  0  0 
  2  4  1  0  0  0  0 
  5  3  2  0  0  0  0 
  4  6  2  0  0  0  0 
  6  5  1  0  0  0  0 
M  END
> <Name>
N-METHYLPYRROLE

> <Source>
NIST3DMolFile

> <Tox>
115

> <CAS>
96-54-8

$$$$

  CDK

 11 10  0  0  0  0  0  0  0  0999 V2000
    4.6460   -2.4815    0.0000 P   0  0  0  0  0  0  0  0  0  0  0  0
    5.9794   -2.4815    0.0000 O   0  0  0  0  0  0  0  0  0  0  0  0
    3.3186   -2.4815    0.0000 O   0  0  0  0  0  0  0  0  0  0  0  0
    4.6460   -3.8149    0.0000 F   0  0  0  0  0  0  0  0  0  0  0  0
    4.6460   -1.1540    0.0000 C   0  0  0  0  0  0  0  0  0  0  0  0
    2.6608   -1.3274    0.0000 C   0  0  0  0  0  0  0  0  0  0  0  0
    1.3334   -1.3274    0.0000 C   0  0  0  0  0  0  0  0  0  0  0  0
    3.3186   -0.1734    0.0000 C   0  0  0  0  0  0  0  0  0  0  0  0
    1.3334   -2.6608    0.0000 C   0  0  0  0  0  0  0  0  0  0  0  0
    1.3334   -0.0000    0.0000 C   0  0  0  0  0  0  0  0  0  0  0  0
    0.0000   -1.3274    0.0000 C   0  0  0  0  0  0  0  0  0  0  0  0
  1  2  2  0  0  0  0 
  1  3  1  0  0  0  0 
  1  4  1  0  0  0  0 
  1  5  1  0  0  0  0 
  3  6  1  0  0  0  0 
  6  7  1  0  0  0  0 
  6  8  1  0  0  0  0 
  7  9  1  0  0  0  0 
  7 10  1  0  0  0  0 
  7 11  1  0  0  0  0 
M  END
> <Name>
SOMAN

> <Source>
DSSTox2DMolFile

> <Tox>
198

> <CAS>
96-64-0

$$$$

  CDK

 15 15  0  0  0  0  0  0  0  0999 V2000
    1.3257   -1.3726    0.0000 C   0  0  0  0  0  0  0  0  0  0  0  0
    1.2923   -0.0000    0.0000 O   0  0  0  0  0  0  0  0  0  0  0  0
    2.4774   -2.0422    0.0000 C   0  0  0  0  0  0  0  0  0  0  0  0
    0.1741   -2.0422    0.0000 C   0  0  0  0  0  0  0  0  0  0  0  0
    2.4774   -3.3746    0.0000 C   0  0  0  0  0  0  0  0  0  0  0  0
    3.6089   -1.3726    0.0000 C   0  0  0  0  0  0  0  0  0  0  0  0
    0.1741   -3.3746    0.0000 C   0  0  0  0  0  0  0  0  0  0  0  0
    1.3257   -4.0241    0.0000 C   0  0  0  0  0  0  0  0  0  0  0  0
    2.9595   -0.2410    0.0000 C   0  0  0  0  0  0  0  0  0  0  0  0
    4.2852   -2.5242    0.0000 C   0  0  0  0  0  0  0  0  0  0  0  0
    4.7606   -0.7164    0.0000 C   0  0  0  0  0  0  0  0  0  0  0  0
    1.3257   -5.3699    0.0000 C   0  0  0  0  0  0  0  0  0  0  0  0
    2.6515   -5.3699    0.0000 C   0  0  0  0  0  0  0  0  0  0  0  0
    0.0000   -5.3565    0.0000 C   0  0  0  0  0  0  0  0  0  0  0  0
    1.3257   -6.6956    0.0000 C   0  0  0  0  0  0  0  0  0  0  0  0
  1  2  1  0  0  0  0 
  1  3  2  0  0  0  0 
  1  4  1  0  0  0  0 
  3  5  1  0  0  0  0 
  3  6  1  0  0  0  0 
  4  7  2  0  0  0  0 
  5  8  2  0  0  0  0 
  6  9  1  0  0  0  0 
  6 10  1  0  0  0  0 
  6 11  1  0  0  0  0 
  7  8  1  0  0  0  0 
  8 12  1  0  0  0  0 
 12 13  1  0  0  0  0 
 12 14  1  0  0  0  0 
 12 15  1  0  0  0  0 
M  END
> <Name>
2,4-DI-T-BUTYLPHENOL

> <Source>
DSSTox2DMolFile

> <Tox>
263.5

> <CAS>
96-76-4

$$$$

  CDK

  8  7  0  0  0  0  0  0  0  0999 V2000
    3.4577   -0.0000    0.0000 O   0  0  0  0  0  0  0  0  0  0  0  0
    3.4577   -1.3312    0.0000 C   0  0  0  0  0  0  0  0  0  0  0  0
    2.3051   -1.9939    0.0000 O   0  0  0  0  0  0  0  0  0  0  0  0
    4.6103   -1.9939    0.0000 C   0  0  0  0  0  0  0  0  0  0  0  0
    1.1526   -1.3312    0.0000 C   0  0  0  0  0  0  0  0  0  0  0  0
    5.7628   -1.3312    0.0000 C   0  0  0  0  0  0  0  0  0  0  0  0
    4.6103   -3.3252    0.0000 C   0  0  0  0  0  0  0  0  0  0  0  0
    0.0000   -1.9939    0.0000 C   0  0  0  0  0  0  0  0  0  0  0  0
  1  2  2  0  0  0  0 
  2  3  1  0  0  0  0 
  2  4  1  0  0  0  0 
  3  5  1  0  0  0  0 
  4  6  2  0  0  0  0 
  4  7  1  0  0  0  0 
  5  8  1  0  0  0  0 
M  END
> <Name>
ETHYL METHACRYLATE

> <Source>
DSSTox2DMolFile

> <Tox>
117

> <CAS>
97-63-2

$$$$

  CDK

 11 10  0  0  0  0  0  0  0  0999 V2000
    4.6083   -1.3265    0.0000 C   0  0  0  0  0  0  0  0  0  0  0  0
    5.7552   -1.9967    0.0000 C   0  0  0  0  0  0  0  0  0  0  0  0
    3.4545   -1.9967    0.0000 O   0  0  0  0  0  0  0  0  0  0  0  0
    4.6083   -0.0000    0.0000 O   0  0  0  0  0  0  0  0  0  0  0  0
    6.9090   -1.3265    0.0000 C   0  0  0  0  0  0  0  0  0  0  0  0
    5.7552   -3.3232    0.0000 C   0  0  0  0  0  0  0  0  0  0  0  0
    2.3007   -1.3265    0.0000 C   0  0  0  0  0  0  0  0  0  0  0  0
    1.1538   -1.9967    0.0000 C   0  0  0  0  0  0  0  0  0  0  0  0
    2.3007   -0.0000    0.0000 O   0  0  0  0  0  0  0  0  0  0  0  0
    0.0000   -1.3265    0.0000 C   0  0  0  0  0  0  0  0  0  0  0  0
    1.1538   -3.3232    0.0000 C   0  0  0  0  0  0  0  0  0  0  0  0
  1  2  1  0  0  0  0 
  1  3  1  0  0  0  0 
  1  4  2  0  0  0  0 
  2  5  1  0  0  0  0 
  2  6  1  0  0  0  0 
  3  7  1  0  0  0  0 
  7  8  1  0  0  0  0 
  7  9  2  0  0  0  0 
  8 10  1  0  0  0  0 
  8 11  1  0  0  0  0 
M  END
> <Name>
Propanoic acid, 2-methyl-, anhydride

> <Source>
DSSTox2DMolFile

> <Tox>
183

> <CAS>
97-72-3

$$$$

  CDK

  7  7  0  0  0  0  0  0  0  0999 V2000
    3.5169   -2.1419    0.0000 C   0  0  0  0  0  0  0  0  0  0  0  0
    2.3050   -1.5998    0.0000 C   0  0  0  0  0  0  0  0  0  0  0  0
    4.4072   -1.1547    0.0000 C   0  0  0  0  0  0  0  0  0  0  0  0
    1.1503   -2.2653    0.0000 C   0  0  0  0  0  0  0  0  0  0  0  0
    2.4416   -0.2777    0.0000 O   0  0  0  0  0  0  0  0  0  0  0  0
    3.7417   -0.0000    0.0000 C   0  0  0  0  0  0  0  0  0  0  0  0
    0.0000   -1.5998    0.0000 O   0  0  0  0  0  0  0  0  0  0  0  0
  1  2  2  0  0  0  0 
  1  3  1  0  0  0  0 
  2  4  1  0  0  0  0 
  2  5  1  0  0  0  0 
  6  3  2  0  0  0  0 
  4  7  1  0  0  0  0 
  5  6  1  0  0  0  0 
M  END
> <Name>
2-HYDROXYMETHYLFURAN

> <Source>
DSSTox2DMolFile

> <Tox>
171

> <CAS>
98-00-0

$$$$

  CDK

 10 10  0  0  0  0  0  0  0  0999 V2000
    0.0061   -0.0321    0.0001 C   0  0  0  0  0  0  0  0  0  0  0  0
    0.7349   -1.2222    0.0001 C   0  0  0  0  0  0  0  0  0  0  0  0
    0.7083    1.1793    0.0001 C   0  0  0  0  0  0  0  0  0  0  0  0
   -1.5106   -0.0048    0.0000 C   0  0  0  0  0  0  0  0  0  0  0  0
    2.1264   -1.2026    0.0001 C   0  0  0  0  0  0  0  0  0  0  0  0
    2.0966    1.1984    0.0000 C   0  0  0  0  0  0  0  0  0  0  0  0
   -1.9967    0.7343    1.2502 C   0  0  0  0  0  0  0  0  0  0  0  0
   -1.9963    0.7281   -1.2539 C   0  0  0  0  0  0  0  0  0  0  0  0
   -2.1352   -1.4011    0.0034 C   0  0  0  0  0  0  0  0  0  0  0  0
    2.8117    0.0053    0.0000 C   0  0  0  0  0  0  0  0  0  0  0  0
  1  2  1  0  0  0  0 
  1  3  2  0  0  0  0 
  1  4  1  0  0  0  0 
  2  5  2  0  0  0  0 
  6  3  1  0  0  0  0 
  4  7  1  0  0  0  0 
  4  8  1  0  0  0  0 
  4  9  1  0  0  0  0 
  5 10  1  0  0  0  0 
 10  6  2  0  0  0  0 
M  END
> <Name>
T-BUTYLBENZENE

> <Source>
DougDB3DMolFile

> <Tox>
169.1

> <CAS>
98-06-6

$$$$

  CDK

 11 11  0  0  0  0  0  0  0  0999 V2000
    0.4897   -1.5095    0.0000 F   0  0  0  0  0  0  0  0  0  0  0  0
    1.1523   -2.6617    0.0000 C   0  0  0  0  0  0  0  0  0  0  0  0
    1.8148   -3.8140    0.0000 F   0  0  0  0  0  0  0  0  0  0  0  0
    0.0000   -3.3243    0.0000 F   0  0  0  0  0  0  0  0  0  0  0  0
    2.3045   -1.9992    0.0000 C   0  0  0  0  0  0  0  0  0  0  0  0
    2.3045   -0.6683    0.0000 C   0  0  0  0  0  0  0  0  0  0  0  0
    3.4568   -2.6617    0.0000 C   0  0  0  0  0  0  0  0  0  0  0  0
    3.4568   -0.0000    0.0000 C   0  0  0  0  0  0  0  0  0  0  0  0
    4.6091   -1.9992    0.0000 C   0  0  0  0  0  0  0  0  0  0  0  0
    4.6091   -0.6683    0.0000 C   0  0  0  0  0  0  0  0  0  0  0  0
    5.7613   -2.6617    0.0000 Cl  0  0  0  0  0  0  0  0  0  0  0  0
  1  2  1  0  0  0  0 
  2  3  1  0  0  0  0 
  2  4  1  0  0  0  0 
  2  5  1  0  0  0  0 
  5  6  2  0  0  0  0 
  5  7  1  0  0  0  0 
  6  8  1  0  0  0  0 
  9  7  2  0  0  0  0 
  8 10  2  0  0  0  0 
 10  9  1  0  0  0  0 
  9 11  1  0  0  0  0 
M  END
> <Name>
Benzene, 1-chloro-3-(trifluoromethyl)-

> <Source>
DSSTox2DMolFile

> <Tox>
137.5

> <CAS>
98-15-7

$$$$

  CDK

 11 11  0  0  0  0  0  0  0  0999 V2000
    5.3217   -1.3304    0.0000 C   0  0  0  0  0  0  0  0  0  0  0  0
    5.3217   -2.6609    0.0000 F   0  0  0  0  0  0  0  0  0  0  0  0
    5.3217   -0.0000    0.0000 F   0  0  0  0  0  0  0  0  0  0  0  0
    6.6521   -1.3304    0.0000 F   0  0  0  0  0  0  0  0  0  0  0  0
    3.9913   -1.3304    0.0000 C   0  0  0  0  0  0  0  0  0  0  0  0
    3.3261   -2.4813    0.0000 C   0  0  0  0  0  0  0  0  0  0  0  0
    3.3261   -0.1796    0.0000 C   0  0  0  0  0  0  0  0  0  0  0  0
    1.9956   -2.4813    0.0000 C   0  0  0  0  0  0  0  0  0  0  0  0
    1.9956   -0.1796    0.0000 C   0  0  0  0  0  0  0  0  0  0  0  0
    1.3304   -1.3304    0.0000 C   0  0  0  0  0  0  0  0  0  0  0  0
    0.0000   -1.3304    0.0000 Cl  0  0  0  0  0  0  0  0  0  0  0  0
  1  2  1  0  0  0  0 
  1  3  1  0  0  0  0 
  1  4  1  0  0  0  0 
  1  5  1  0  0  0  0 
  5  6  2  0  0  0  0 
  5  7  1  0  0  0  0 
  6  8  1  0  0  0  0 
  9  7  2  0  0  0  0 
  8 10  2  0  0  0  0 
 10  9  1  0  0  0  0 
 10 11  1  0  0  0  0 
M  END
> <Name>
4-(TRIFLUOROMETHYL)CHLOROBENZENE

> <Source>
DSSTox2DMolFile

> <Tox>
138.5

> <CAS>
98-56-6

$$$$

  CDK

  9  9  0  0  0  0  0  0  0  0999 V2000
    2.6574   -0.0000    0.0000 C   0  0  0  0  0  0  0  0  0  0  0  0
    3.9884   -0.0000    0.0000 C   0  0  0  0  0  0  0  0  0  0  0  0
    1.9965   -1.1542    0.0000 C   0  0  0  0  0  0  0  0  0  0  0  0
    4.6539   -1.1542    0.0000 C   0  0  0  0  0  0  0  0  0  0  0  0
    2.6574   -2.3037    0.0000 C   0  0  0  0  0  0  0  0  0  0  0  0
    0.6655   -1.1542    0.0000 C   0  0  0  0  0  0  0  0  0  0  0  0
    3.9884   -2.3037    0.0000 C   0  0  0  0  0  0  0  0  0  0  0  0
    0.0000   -2.3037    0.0000 O   0  0  0  0  0  0  0  0  0  0  0  0
    0.0000   -0.0000    0.0000 C   0  0  0  0  0  0  0  0  0  0  0  0
  1  2  2  0  0  0  0 
  1  3  1  0  0  0  0 
  2  4  1  0  0  0  0 
  5  3  2  0  0  0  0 
  3  6  1  0  0  0  0 
  4  7  2  0  0  0  0 
  7  5  1  0  0  0  0 
  6  8  2  0  0  0  0 
  6  9  1  0  0  0  0 
M  END
> <Name>
ACETOPHENONE

> <Source>
DSSTox2DMolFile

> <Tox>
202

> <CAS>
98-86-2

$$$$

  CDK

  9  9  0  0  0  0  0  0  0  0999 V2000
   -0.2209   -0.0582   -0.3253 C   0  0  0  0  0  0  0  0  0  0  0  0
    0.4733   -1.1225    0.5218 C   0  0  0  0  0  0  0  0  0  0  0  0
    0.4214    1.3180   -0.1153 C   0  0  0  0  0  0  0  0  0  0  0  0
   -1.6957   -0.0021    0.0221 C   0  0  0  0  0  0  0  0  0  0  0  0
    1.9224   -1.3013    0.0853 C   0  0  0  0  0  0  0  0  0  0  0  0
    1.9067    1.2113    0.2092 C   0  0  0  0  0  0  0  0  0  0  0  0
   -2.2371    0.2325    1.0875 O   0  0  0  0  0  0  0  0  0  0  0  0
   -2.5348   -0.2533   -1.0109 O   0  0  0  0  0  0  0  0  0  0  0  0
    2.5400   -0.0086   -0.4353 C   0  0  0  0  0  0  0  0  0  0  0  0
  1  2  1  0  0  0  0 
  1  3  1  0  0  0  0 
  1  4  1  0  0  0  0 
  2  5  1  0  0  0  0 
  6  3  1  0  0  0  0 
  4  7  2  0  0  0  0 
  4  8  1  0  0  0  0 
  5  9  1  0  0  0  0 
  9  6  1  0  0  0  0 
M  END
> <Name>
CYCLOHEXANECARBOXYLIC ACID

> <Source>
DougDB3DMolFile

> <Tox>
232.5

> <CAS>
98-89-5

$$$$

  CDK

 10 10  0  0  0  0  0  0  0  0999 V2000
    3.9889   -2.3040    0.0000 N   0  0  0  0  0  0  0  0  0  0  0  0
    4.6545   -3.4536    0.0000 O   0  0  0  0  0  0  0  0  0  0  0  0
    4.6545   -1.1497    0.0000 O   0  0  0  0  0  0  0  0  0  0  0  0
    2.6577   -2.3040    0.0000 C   0  0  0  0  0  0  0  0  0  0  0  0
    1.9968   -3.4536    0.0000 C   0  0  0  0  0  0  0  0  0  0  0  0
    1.9968   -1.1497    0.0000 C   0  0  0  0  0  0  0  0  0  0  0  0
    0.6656   -3.4536    0.0000 C   0  0  0  0  0  0  0  0  0  0  0  0
    0.6656   -1.1497    0.0000 C   0  0  0  0  0  0  0  0  0  0  0  0
    0.0000   -2.3040    0.0000 C   0  0  0  0  0  0  0  0  0  0  0  0
    0.0000   -0.0000    0.0000 N   0  0  0  0  0  0  0  0  0  0  0  0
  1  2  2  0  0  0  0 
  1  3  1  0  0  0  0 
  1  4  1  0  0  0  0 
  4  5  2  0  0  0  0 
  4  6  1  0  0  0  0 
  5  7  1  0  0  0  0 
  8  6  2  0  0  0  0 
  7  9  2  0  0  0  0 
  9  8  1  0  0  0  0 
  8 10  1  0  0  0  0 
M  CHG  1   1   1
M  CHG  1   3  -1
M  END
> <Name>
3-NITROANILINE

> <Source>
DSSTox2DMolFile

> <Tox>
306

> <CAS>
99-09-2

$$$$

  CDK

 11 11  0  0  0  0  0  0  0  0999 V2000
    4.6552   -0.0000    0.0000 O   0  0  0  0  0  0  0  0  0  0  0  0
    3.9910   -1.1488    0.0000 C   0  0  0  0  0  0  0  0  0  0  0  0
    4.6552   -2.3037    0.0000 C   0  0  0  0  0  0  0  0  0  0  0  0
    2.6567   -1.1488    0.0000 C   0  0  0  0  0  0  0  0  0  0  0  0
    3.9910   -3.4525    0.0000 C   0  0  0  0  0  0  0  0  0  0  0  0
    5.9835   -2.3037    0.0000 C   0  0  0  0  0  0  0  0  0  0  0  0
    1.9925   -2.3037    0.0000 C   0  0  0  0  0  0  0  0  0  0  0  0
    2.6567   -3.4525    0.0000 C   0  0  0  0  0  0  0  0  0  0  0  0
    0.6642   -2.3037    0.0000 C   0  0  0  0  0  0  0  0  0  0  0  0
    0.0000   -3.4525    0.0000 C   0  0  0  0  0  0  0  0  0  0  0  0
    0.0000   -1.1488    0.0000 C   0  0  0  0  0  0  0  0  0  0  0  0
  1  2  1  0  0  0  0 
  2  3  1  0  0  0  0 
  2  4  1  0  0  0  0 
  3  5  2  0  0  0  0 
  3  6  1  0  0  0  0 
  7  4  1  0  0  0  0 
  5  8  1  0  0  0  0 
  8  7  1  0  0  0  0 
  7  9  1  0  0  0  0 
  9 10  2  0  0  0  0 
  9 11  1  0  0  0  0 
M  END
> <Name>
2-Cyclohexen-1-ol, 2-methyl-5-(1-methylethenyl)-

> <Source>
DSSTox2DMolFile

> <Tox>
228

> <CAS>
99-48-9

$$$$

  CDK

 11 11  0  0  0  0  0  0  0  0999 V2000
    5.9835   -2.3037    0.0000 C   0  0  0  0  0  0  0  0  0  0  0  0
    4.6552   -2.3037    0.0000 C   0  0  0  0  0  0  0  0  0  0  0  0
    3.9910   -3.4525    0.0000 C   0  0  0  0  0  0  0  0  0  0  0  0
    3.9910   -1.1488    0.0000 C   0  0  0  0  0  0  0  0  0  0  0  0
    2.6567   -3.4525    0.0000 C   0  0  0  0  0  0  0  0  0  0  0  0
    2.6567   -1.1488    0.0000 C   0  0  0  0  0  0  0  0  0  0  0  0
    4.6552   -0.0000    0.0000 C   0  0  0  0  0  0  0  0  0  0  0  0
    1.9925   -2.3037    0.0000 C   0  0  0  0  0  0  0  0  0  0  0  0
    0.6642   -2.3037    0.0000 N   0  0  0  0  0  0  0  0  0  0  0  0
    0.0000   -3.4525    0.0000 O   0  0  0  0  0  0  0  0  0  0  0  0
    0.0000   -1.1488    0.0000 O   0  0  0  0  0  0  0  0  0  0  0  0
  1  2  1  0  0  0  0 
  2  3  2  0  0  0  0 
  2  4  1  0  0  0  0 
  3  5  1  0  0  0  0 
  6  4  2  0  0  0  0 
  4  7  1  0  0  0  0 
  5  8  2  0  0  0  0 
  8  6  1  0  0  0  0 
  8  9  1  0  0  0  0 
  9 10  1  0  0  0  0 
  9 11  2  0  0  0  0 
M  CHG  1   9   1
M  CHG  1  10  -1
M  END
> <Name>
1,2-DIMETHYL-4-NITROBENZENE

> <Source>
DSSTox2DMolFile

> <Tox>
251

> <CAS>
99-51-4

$$$$

  CDK

 12 12  0  0  0  0  0  0  0  0999 V2000
    4.5984   -2.0023    0.0000 C   0  0  0  0  0  0  0  0  0  0  0  0
    4.5984   -3.3348    0.0000 C   0  0  0  0  0  0  0  0  0  0  0  0
    3.4453   -1.3326    0.0000 C   0  0  0  0  0  0  0  0  0  0  0  0
    5.7514   -1.3326    0.0000 C   0  0  0  0  0  0  0  0  0  0  0  0
    3.4453   -3.9908    0.0000 C   0  0  0  0  0  0  0  0  0  0  0  0
    2.3061   -2.0023    0.0000 C   0  0  0  0  0  0  0  0  0  0  0  0
    5.7514   -0.0000    0.0000 C   0  0  0  0  0  0  0  0  0  0  0  0
    6.9044   -2.0023    0.0000 C   0  0  0  0  0  0  0  0  0  0  0  0
    2.3061   -3.3348    0.0000 C   0  0  0  0  0  0  0  0  0  0  0  0
    1.1530   -1.3326    0.0000 C   0  0  0  0  0  0  0  0  0  0  0  0
    0.0000   -2.0023    0.0000 C   0  0  0  0  0  0  0  0  0  0  0  0
    1.1530   -0.0000    0.0000 C   0  0  0  0  0  0  0  0  0  0  0  0
  1  2  2  0  0  0  0 
  1  3  1  0  0  0  0 
  1  4  1  0  0  0  0 
  2  5  1  0  0  0  0 
  6  3  2  0  0  0  0 
  4  7  1  0  0  0  0 
  4  8  1  0  0  0  0 
  5  9  2  0  0  0  0 
  9  6  1  0  0  0  0 
  6 10  1  0  0  0  0 
 10 11  1  0  0  0  0 
 10 12  1  0  0  0  0 
M  END
> <Name>
1,3-DIISOPROPYLBENZENE

> <Source>
DSSTox2DMolFile

> <Tox>
203.2

> <CAS>
99-62-7

$$$$

  CDK

 10 10  0  0  0  0  0  0  0  0999 V2000
    3.3279   -2.4780    0.0000 C   0  0  0  0  0  0  0  0  0  0  0  0
    1.9991   -2.4780    0.0000 C   0  0  0  0  0  0  0  0  0  0  0  0
    3.9863   -1.3228    0.0000 C   0  0  0  0  0  0  0  0  0  0  0  0
    1.3288   -1.3228    0.0000 C   0  0  0  0  0  0  0  0  0  0  0  0
    3.3279   -0.1915    0.0000 C   0  0  0  0  0  0  0  0  0  0  0  0
    5.3150   -1.3228    0.0000 N   0  0  0  0  0  0  0  0  0  0  0  0
    1.9991   -0.1915    0.0000 C   0  0  0  0  0  0  0  0  0  0  0  0
    0.0000   -1.3228    0.0000 C   0  0  0  0  0  0  0  0  0  0  0  0
    5.9854   -2.4780    0.0000 O   0  0  0  0  0  0  0  0  0  0  0  0
    5.6323   -0.0000    0.0000 O   0  0  0  0  0  0  0  0  0  0  0  0
  1  2  2  0  0  0  0 
  1  3  1  0  0  0  0 
  2  4  1  0  0  0  0 
  3  5  2  0  0  0  0 
  3  6  1  0  0  0  0 
  4  7  2  0  0  0  0 
  4  8  1  0  0  0  0 
  7  5  1  0  0  0  0 
  6  9  2  0  0  0  0 
  6 10  1  0  0  0  0 
M  CHG  1   6   1
M  CHG  1  10  -1
M  END
> <Name>
P-NITROTOLUENE

> <Source>
DSSTox2DMolFile

> <Tox>
238.3

> <CAS>
99-99-0

$$$$

  CDK

 10 10  0  0  0  0  0  0  0  0999 V2000
    0.0000   -2.3031    0.0000 O   0  0  0  0  0  0  0  0  0  0  0  0
    0.6640   -1.1546    0.0000 N   0  0  0  0  0  0  0  0  0  0  0  0
    1.9921   -1.1546    0.0000 C   0  0  0  0  0  0  0  0  0  0  0  0
    0.0000   -0.0000    0.0000 O   0  0  0  0  0  0  0  0  0  0  0  0
    2.6561   -0.0000    0.0000 C   0  0  0  0  0  0  0  0  0  0  0  0
    2.6561   -2.3031    0.0000 C   0  0  0  0  0  0  0  0  0  0  0  0
    3.9901   -0.0000    0.0000 C   0  0  0  0  0  0  0  0  0  0  0  0
    3.9901   -2.3031    0.0000 C   0  0  0  0  0  0  0  0  0  0  0  0
    4.6542   -1.1546    0.0000 C   0  0  0  0  0  0  0  0  0  0  0  0
    5.9822   -1.1546    0.0000 N   0  0  0  0  0  0  0  0  0  0  0  0
  1  2  2  0  0  0  0 
  2  3  1  0  0  0  0 
  2  4  1  0  0  0  0 
  3  5  2  0  0  0  0 
  3  6  1  0  0  0  0 
  5  7  1  0  0  0  0 
  8  6  2  0  0  0  0 
  7  9  2  0  0  0  0 
  9  8  1  0  0  0  0 
  9 10  1  0  0  0  0 
M  CHG  1   2   1
M  CHG  1   4  -1
M  END
> <Name>
4-NITROANILINE

> <Source>
DSSTox2DMolFile

> <Tox>
332

> <CAS>
100-01-6

$$$$

  CDK

 11 11  0  0  0  0  0  0  0  0999 V2000
   -2.5667   -0.1929   -0.0002 C   0  0  0  0  0  0  0  0  0  0  0  0
   -3.4231    1.0472    0.0024 C   0  0  0  0  0  0  0  0  0  0  0  0
   -3.0810   -1.2989   -0.0024 O   0  0  0  0  0  0  0  0  0  0  0  0
   -1.0852   -0.0255   -0.0001 C   0  0  0  0  0  0  0  0  0  0  0  0
   -0.4904    1.2418   -0.0017 C   0  0  0  0  0  0  0  0  0  0  0  0
   -0.2653   -1.1568    0.0014 C   0  0  0  0  0  0  0  0  0  0  0  0
    0.8871    1.3822   -0.0014 C   0  0  0  0  0  0  0  0  0  0  0  0
    1.1195   -1.0387    0.0016 C   0  0  0  0  0  0  0  0  0  0  0  0
    1.6978    0.2343    0.0004 C   0  0  0  0  0  0  0  0  0  0  0  0
    3.0489    0.5006    0.0012 O   0  0  0  0  0  0  0  0  0  0  0  0
    3.9294   -0.5969   -0.0011 C   0  0  0  0  0  0  0  0  0  0  0  0
  1  2  1  0  0  0  0 
  1  3  2  0  0  0  0 
  1  4  1  0  0  0  0 
  4  5  1  0  0  0  0 
  4  6  2  0  0  0  0 
  5  7  2  0  0  0  0 
  8  6  1  0  0  0  0 
  7  9  1  0  0  0  0 
  9  8  2  0  0  0  0 
  9 10  1  0  0  0  0 
 10 11  1  0  0  0  0 
M  END
> <Name>
P-METHOXYACETOPHENONE

> <Source>
DougDB3DMolFile

> <Tox>
258

> <CAS>
100-06-1

$$$$

  CDK

  8  8  0  0  0  0  0  0  0  0999 V2000
    0.0000   -0.0000    0.0000 C   0  0  0  0  0  0  0  0  0  0  0  0
    0.6654   -1.1540    0.0000 C   0  0  0  0  0  0  0  0  0  0  0  0
    1.9962   -1.1540    0.0000 C   0  0  0  0  0  0  0  0  0  0  0  0
    2.6569   -0.0000    0.0000 C   0  0  0  0  0  0  0  0  0  0  0  0
    2.6569   -2.3033    0.0000 C   0  0  0  0  0  0  0  0  0  0  0  0
    3.9877   -0.0000    0.0000 C   0  0  0  0  0  0  0  0  0  0  0  0
    3.9877   -2.3033    0.0000 C   0  0  0  0  0  0  0  0  0  0  0  0
    4.6531   -1.1540    0.0000 C   0  0  0  0  0  0  0  0  0  0  0  0
  1  2  1  0  0  0  0 
  2  3  1  0  0  0  0 
  3  4  2  0  0  0  0 
  3  5  1  0  0  0  0 
  4  6  1  0  0  0  0 
  7  5  2  0  0  0  0 
  6  8  2  0  0  0  0 
  8  7  1  0  0  0  0 
M  END
> <Name>
ETHYLBENZENE

> <Source>
DSSTox2DMolFile

> <Tox>
136.1

> <CAS>
100-41-4

$$$$

  CDK

  8  8  0  0  0  0  0  0  0  0999 V2000
    0.0000   -0.0000    0.0000 N   0  0  0  0  0  0  0  0  0  0  0  0
    0.6654   -1.1540    0.0000 C   0  0  0  0  0  0  0  0  0  0  0  0
    1.9962   -1.1540    0.0000 C   0  0  0  0  0  0  0  0  0  0  0  0
    2.6569   -0.0000    0.0000 C   0  0  0  0  0  0  0  0  0  0  0  0
    2.6569   -2.3033    0.0000 C   0  0  0  0  0  0  0  0  0  0  0  0
    3.9877   -0.0000    0.0000 C   0  0  0  0  0  0  0  0  0  0  0  0
    3.9877   -2.3033    0.0000 C   0  0  0  0  0  0  0  0  0  0  0  0
    4.6531   -1.1540    0.0000 C   0  0  0  0  0  0  0  0  0  0  0  0
  1  2  1  0  0  0  0 
  2  3  1  0  0  0  0 
  3  4  2  0  0  0  0 
  3  5  1  0  0  0  0 
  4  6  1  0  0  0  0 
  7  5  2  0  0  0  0 
  6  8  2  0  0  0  0 
  8  7  1  0  0  0  0 
M  END
> <Name>
BENZYLAMINE

> <Source>
DSSTox2DMolFile

> <Tox>
185

> <CAS>
100-46-9

$$$$

  CDK

  8  8  0  0  0  0  0  0  0  0999 V2000
    0.0000    0.8559    0.0000 N   0  0  0  0  0  0  0  0  0  0  0  0
    0.9566    0.8559    0.0000 C   0  0  0  0  0  0  0  0  0  0  0  0
    2.0139    0.8559    0.0000 C   0  0  0  0  0  0  0  0  0  0  0  0
    2.5174    1.7119    0.0000 C   0  0  0  0  0  0  0  0  0  0  0  0
    2.5174    0.0000    0.0000 C   0  0  0  0  0  0  0  0  0  0  0  0
    3.5244    1.7119    0.0000 C   0  0  0  0  0  0  0  0  0  0  0  0
    3.5244    0.0000    0.0000 C   0  0  0  0  0  0  0  0  0  0  0  0
    4.0279    0.8559    0.0000 N   0  0  0  0  0  0  0  0  0  0  0  0
  1  2  3  0  0  0  0 
  2  3  1  0  0  0  0 
  4  3  2  0  0  0  0 
  3  5  1  0  0  0  0 
  6  4  1  0  0  0  0 
  5  7  2  0  0  0  0 
  8  6  2  0  0  0  0 
  7  8  1  0  0  0  0 
M  END
> <Name>
4-CYANOPYRIDINE

> <Source>
NIST2DMolFile

> <Tox>
213.5

> <CAS>
100-48-1

$$$$

  CDK

  8  8  0  0  0  0  0  0  0  0999 V2000
    0.0000   -0.0000    0.0000 N   0  0  0  0  0  0  0  0  0  0  0  0
    0.6654   -1.1540    0.0000 N   0  0  0  0  0  0  0  0  0  0  0  0
    1.9962   -1.1540    0.0000 C   0  0  0  0  0  0  0  0  0  0  0  0
    2.6569   -0.0000    0.0000 C   0  0  0  0  0  0  0  0  0  0  0  0
    2.6569   -2.3033    0.0000 C   0  0  0  0  0  0  0  0  0  0  0  0
    3.9877   -0.0000    0.0000 C   0  0  0  0  0  0  0  0  0  0  0  0
    3.9877   -2.3033    0.0000 C   0  0  0  0  0  0  0  0  0  0  0  0
    4.6531   -1.1540    0.0000 C   0  0  0  0  0  0  0  0  0  0  0  0
  1  2  1  0  0  0  0 
  2  3  1  0  0  0  0 
  3  4  2  0  0  0  0 
  3  5  1  0  0  0  0 
  4  6  1  0  0  0  0 
  7  5  2  0  0  0  0 
  6  8  2  0  0  0  0 
  8  7  1  0  0  0  0 
M  END
> <Name>
PHENYL HYDRAZINE

> <Source>
DSSTox2DMolFile

> <Tox>
243.5

> <CAS>
100-63-0

$$$$

  CDK

  8  8  0  0  0  0  0  0  0  0999 V2000
    0.0000   -2.3042    0.0000 O   0  0  0  0  0  0  0  0  0  0  0  0
    0.6656   -1.1544    0.0000 N   0  0  0  0  0  0  0  0  0  0  0  0
    1.9969   -1.1544    0.0000 C   0  0  0  0  0  0  0  0  0  0  0  0
    2.6579   -0.0000    0.0000 C   0  0  0  0  0  0  0  0  0  0  0  0
    2.6579   -2.3042    0.0000 C   0  0  0  0  0  0  0  0  0  0  0  0
    3.9892   -0.0000    0.0000 C   0  0  0  0  0  0  0  0  0  0  0  0
    3.9892   -2.3042    0.0000 C   0  0  0  0  0  0  0  0  0  0  0  0
    4.6549   -1.1544    0.0000 C   0  0  0  0  0  0  0  0  0  0  0  0
  1  2  1  0  0  0  0 
  2  3  2  0  0  0  0 
  3  4  1  0  0  0  0 
  3  5  1  0  0  0  0 
  4  6  1  0  0  0  0 
  7  5  1  0  0  0  0 
  6  8  1  0  0  0  0 
  8  7  1  0  0  0  0 
M  END
> <Name>
CYCLOHEXANONE OXIME

> <Source>
DSSTox2DMolFile

> <Tox>
206

> <CAS>
100-64-1

$$$$

  CDK

  8  8  0  0  0  0  0  0  0  0999 V2000
    1.9969   -0.0000    0.0000 N   0  0  0  0  0  0  0  0  0  0  0  0
    2.6579   -1.1544    0.0000 C   0  0  0  0  0  0  0  0  0  0  0  0
    0.6656   -0.0000    0.0000 C   0  0  0  0  0  0  0  0  0  0  0  0
    3.9892   -1.1544    0.0000 C   0  0  0  0  0  0  0  0  0  0  0  0
    1.9969   -2.3042    0.0000 C   0  0  0  0  0  0  0  0  0  0  0  0
    0.0000   -1.1544    0.0000 C   0  0  0  0  0  0  0  0  0  0  0  0
    4.6549   -2.3042    0.0000 C   0  0  0  0  0  0  0  0  0  0  0  0
    0.6656   -2.3042    0.0000 C   0  0  0  0  0  0  0  0  0  0  0  0
  1  2  2  0  0  0  0 
  1  3  1  0  0  0  0 
  2  4  1  0  0  0  0 
  2  5  1  0  0  0  0 
  6  3  2  0  0  0  0 
  4  7  1  0  0  0  0 
  5  8  2  0  0  0  0 
  8  6  1  0  0  0  0 
M  END
> <Name>
2-ETHYLPYRIDINE

> <Source>
DSSTox2DMolFile

> <Tox>
148.6

> <CAS>
100-71-0

$$$$

  CDK

  8  8  0  0  0  0  0  0  0  0999 V2000
    0.0000    1.4432    0.0000 O   0  0  0  0  0  0  0  0  0  0  0  0
    0.9278    1.9587    0.0000 C   0  0  0  0  0  0  0  0  0  0  0  0
    1.8040    1.4432    0.0000 C   0  0  0  0  0  0  0  0  0  0  0  0
    2.6803    1.9587    0.0000 C   0  0  0  0  0  0  0  0  0  0  0  0
    1.8040    0.5154    0.0000 O   0  0  0  0  0  0  0  0  0  0  0  0
    3.5565    1.4432    0.0000 C   0  0  0  0  0  0  0  0  0  0  0  0
    2.6803    0.0000    0.0000 C   0  0  0  0  0  0  0  0  0  0  0  0
    3.5565    0.5154    0.0000 C   0  0  0  0  0  0  0  0  0  0  0  0
  1  2  2  0  0  0  0 
  2  3  1  0  0  0  0 
  3  4  1  0  0  0  0 
  5  3  1  0  0  0  0 
  4  6  1  0  0  0  0 
  7  5  1  0  0  0  0 
  6  8  1  0  0  0  0 
  8  7  2  0  0  0  0 
M  END
> <Name>
2H-Pyran-2-carboxaldehyde, 3,4-dihydro-

> <Source>
NIST2DMolFile

> <Tox>
146

> <CAS>
100-73-2

$$$$

  CDK

  8  8  0  0  0  0  0  0  0  0999 V2000
    0.0000   -0.0000    0.0000 O   0  0  0  0  0  0  0  0  0  0  0  0
    0.6654   -1.1540    0.0000 N   0  0  0  0  0  0  0  0  0  0  0  0
    1.9962   -1.1540    0.0000 N   0  0  0  0  0  0  0  0  0  0  0  0
    2.6569   -0.0000    0.0000 C   0  0  0  0  0  0  0  0  0  0  0  0
    2.6569   -2.3033    0.0000 C   0  0  0  0  0  0  0  0  0  0  0  0
    3.9877   -0.0000    0.0000 C   0  0  0  0  0  0  0  0  0  0  0  0
    3.9877   -2.3033    0.0000 C   0  0  0  0  0  0  0  0  0  0  0  0
    4.6531   -1.1540    0.0000 C   0  0  0  0  0  0  0  0  0  0  0  0
  1  2  2  0  0  0  0 
  2  3  1  0  0  0  0 
  3  4  1  0  0  0  0 
  3  5  1  0  0  0  0 
  4  6  1  0  0  0  0 
  7  5  1  0  0  0  0 
  6  8  1  0  0  0  0 
  8  7  1  0  0  0  0 
M  END
> <Name>
N-NITROSOPIPERIDINE

> <Source>
DSSTox2DMolFile

> <Tox>
219

> <CAS>
100-75-4

$$$$

  CDK

  9  9  0  0  0  0  0  0  0  0999 V2000
    0.0000    3.0344    1.1748 O   0  0  0  0  0  0  0  0  0  0  0  0
    0.6767    2.0721    0.8919 C   0  0  0  0  0  0  0  0  0  0  0  0
    2.1520    2.1205    0.7178 C   0  0  0  0  0  0  0  0  0  0  0  0
    2.8557    3.3133    0.8556 C   0  0  0  0  0  0  0  0  0  0  0  0
    2.8290    0.9364    0.4101 C   0  0  0  0  0  0  0  0  0  0  0  0
    4.2481    3.3044    0.6809 C   0  0  0  0  0  0  0  0  0  0  0  0
    4.2069    0.9391    0.2403 C   0  0  0  0  0  0  0  0  0  0  0  0
    4.8772    4.5104    0.8294 O   0  0  0  0  0  0  0  0  0  0  0  0
    4.9290    2.1202    0.3735 C   0  0  0  0  0  0  0  0  0  0  0  0
  1  2  2  0  0  0  0 
  2  3  1  0  0  0  0 
  3  4  2  0  0  0  0 
  5  3  1  0  0  0  0 
  4  6  1  0  0  0  0 
  7  5  2  0  0  0  0 
  6  8  1  0  0  0  0 
  6  9  2  0  0  0  0 
  9  7  1  0  0  0  0 
M  END
> <Name>
3-HYDROXYBENZALDEHYDE

> <Source>
NIST3DMolFile

> <Tox>
240

> <CAS>
100-83-4

$$$$

  CDK

 17 18  0  0  0  0  0  0  0  0999 V2000
    0.0000   -3.9880    0.0000 Cl  0  0  0  0  0  0  0  0  0  0  0  0
    1.1513   -3.3249    0.0000 C   0  0  0  0  0  0  0  0  0  0  0  0
    1.1513   -1.9894    0.0000 C   0  0  0  0  0  0  0  0  0  0  0  0
    2.3026   -3.9880    0.0000 C   0  0  0  0  0  0  0  0  0  0  0  0
    2.3026   -1.3263    0.0000 C   0  0  0  0  0  0  0  0  0  0  0  0
    0.0000   -1.3263    0.0000 N   0  0  0  0  0  0  0  0  0  0  0  0
    3.4538   -3.3249    0.0000 C   0  0  0  0  0  0  0  0  0  0  0  0
    3.4538   -1.9894    0.0000 C   0  0  0  0  0  0  0  0  0  0  0  0
    4.6051   -3.9880    0.0000 C   0  0  0  0  0  0  0  0  0  0  0  0
    5.7564   -3.3249    0.0000 C   0  0  0  0  0  0  0  0  0  0  0  0
    5.7564   -1.9894    0.0000 C   0  0  0  0  0  0  0  0  0  0  0  0
    6.9076   -3.9880    0.0000 C   0  0  0  0  0  0  0  0  0  0  0  0
    6.9076   -1.3263    0.0000 C   0  0  0  0  0  0  0  0  0  0  0  0
    8.0589   -3.3249    0.0000 C   0  0  0  0  0  0  0  0  0  0  0  0
    8.0589   -1.9894    0.0000 C   0  0  0  0  0  0  0  0  0  0  0  0
    6.9076   -0.0000    0.0000 Cl  0  0  0  0  0  0  0  0  0  0  0  0
    9.2102   -1.3263    0.0000 N   0  0  0  0  0  0  0  0  0  0  0  0
  1  2  1  0  0  0  0 
  2  3  2  0  0  0  0 
  2  4  1  0  0  0  0 
  3  5  1  0  0  0  0 
  3  6  1  0  0  0  0 
  7  4  2  0  0  0  0 
  5  8  2  0  0  0  0 
  8  7  1  0  0  0  0 
  7  9  1  0  0  0  0 
  9 10  1  0  0  0  0 
 10 11  2  0  0  0  0 
 10 12  1  0  0  0  0 
 11 13  1  0  0  0  0 
 14 12  2  0  0  0  0 
 13 15  2  0  0  0  0 
 13 16  1  0  0  0  0 
 15 14  1  0  0  0  0 
 15 17  1  0  0  0  0 
M  END
> <Name>
4,4'-METHYLENEBIS(2-CHLOROANILINE)

> <Source>
DSSTox2DMolFile

> <Tox>
378.9

> <CAS>
101-14-4

$$$$

  CDK

 19 20  0  0  0  0  0  0  0  0999 V2000
    5.7456   -0.0000    0.0000 C   0  0  0  0  0  0  0  0  0  0  0  0
    6.8970   -0.6678    0.0000 C   0  0  0  0  0  0  0  0  0  0  0  0
    4.6172   -0.6678    0.0000 C   0  0  0  0  0  0  0  0  0  0  0  0
    6.8970   -2.0035    0.0000 C   0  0  0  0  0  0  0  0  0  0  0  0
    8.0599   -0.0000    0.0000 C   0  0  0  0  0  0  0  0  0  0  0  0
    3.4543   -0.0000    0.0000 C   0  0  0  0  0  0  0  0  0  0  0  0
    4.6172   -2.0035    0.0000 C   0  0  0  0  0  0  0  0  0  0  0  0
    8.0599   -2.6598    0.0000 C   0  0  0  0  0  0  0  0  0  0  0  0
    9.2113   -0.6678    0.0000 C   0  0  0  0  0  0  0  0  0  0  0  0
    2.3028   -0.6678    0.0000 C   0  0  0  0  0  0  0  0  0  0  0  0
    3.4543   -2.6598    0.0000 C   0  0  0  0  0  0  0  0  0  0  0  0
    9.2113   -2.0035    0.0000 C   0  0  0  0  0  0  0  0  0  0  0  0
    2.3028   -2.0035    0.0000 C   0  0  0  0  0  0  0  0  0  0  0  0
   10.3628   -2.6598    0.0000 N   0  0  0  0  0  0  0  0  0  0  0  0
    1.1514   -2.6598    0.0000 N   0  0  0  0  0  0  0  0  0  0  0  0
   11.5142   -2.0035    0.0000 C   0  0  0  0  0  0  0  0  0  0  0  0
   10.3628   -3.9839    0.0000 C   0  0  0  0  0  0  0  0  0  0  0  0
    1.1514   -3.9839    0.0000 C   0  0  0  0  0  0  0  0  0  0  0  0
    0.0000   -2.0035    0.0000 C   0  0  0  0  0  0  0  0  0  0  0  0
  1  2  1  0  0  0  0 
  1  3  1  0  0  0  0 
  2  4  2  0  0  0  0 
  2  5  1  0  0  0  0 
  3  6  2  0  0  0  0 
  3  7  1  0  0  0  0 
  4  8  1  0  0  0  0 
  5  9  2  0  0  0  0 
  6 10  1  0  0  0  0 
  7 11  2  0  0  0  0 
  8 12  2  0  0  0  0 
  9 12  1  0  0  0  0 
 10 13  2  0  0  0  0 
 11 13  1  0  0  0  0 
 12 14  1  0  0  0  0 
 13 15  1  0  0  0  0 
 14 16  1  0  0  0  0 
 14 17  1  0  0  0  0 
 15 18  1  0  0  0  0 
 15 19  1  0  0  0  0 
M  END
> <Name>
BIS(4-DIMETHYLAMINOPHENYL)METHANE

> <Source>
DSSTox2DMolFile

> <Tox>
390

> <CAS>
101-61-1

$$$$

  CDK

 15 16  0  0  0  0  0  0  0  0999 V2000
    9.2080   -2.6611    0.0000 N   0  0  0  0  0  0  0  0  0  0  0  0
    8.0570   -1.9981    0.0000 C   0  0  0  0  0  0  0  0  0  0  0  0
    6.9060   -2.6611    0.0000 C   0  0  0  0  0  0  0  0  0  0  0  0
    8.0570   -0.6630    0.0000 C   0  0  0  0  0  0  0  0  0  0  0  0
    5.7550   -1.9981    0.0000 C   0  0  0  0  0  0  0  0  0  0  0  0
    6.9060   -0.0000    0.0000 C   0  0  0  0  0  0  0  0  0  0  0  0
    5.7550   -0.6630    0.0000 C   0  0  0  0  0  0  0  0  0  0  0  0
    4.6040   -0.0000    0.0000 O   0  0  0  0  0  0  0  0  0  0  0  0
    3.4530   -0.6630    0.0000 C   0  0  0  0  0  0  0  0  0  0  0  0
    3.4530   -1.9981    0.0000 C   0  0  0  0  0  0  0  0  0  0  0  0
    2.3020   -0.0000    0.0000 C   0  0  0  0  0  0  0  0  0  0  0  0
    2.3020   -2.6611    0.0000 C   0  0  0  0  0  0  0  0  0  0  0  0
    1.1510   -0.6630    0.0000 C   0  0  0  0  0  0  0  0  0  0  0  0
    1.1510   -1.9981    0.0000 C   0  0  0  0  0  0  0  0  0  0  0  0
    0.0000   -2.6611    0.0000 N   0  0  0  0  0  0  0  0  0  0  0  0
  1  2  1  0  0  0  0 
  2  3  2  0  0  0  0 
  2  4  1  0  0  0  0 
  3  5  1  0  0  0  0 
  6  4  2  0  0  0  0 
  5  7  2  0  0  0  0 
  7  6  1  0  0  0  0 
  7  8  1  0  0  0  0 
  8  9  1  0  0  0  0 
  9 10  2  0  0  0  0 
  9 11  1  0  0  0  0 
 10 12  1  0  0  0  0 
 13 11  2  0  0  0  0 
 12 14  2  0  0  0  0 
 14 13  1  0  0  0  0 
 14 15  1  0  0  0  0 
M  END
> <Name>
4,4'-DIAMINODIPHENYL ETHER

> <Source>
DSSTox2DMolFile

> <Tox>
350

> <CAS>
101-80-4

$$$$

  CDK

 11 10  0  0  0  0  0  0  0  0999 V2000
    3.8085    1.3989    4.0153 C   0  0  0  0  0  0  0  0  0  0  0  0
    3.0399    2.1352    2.9037 C   0  0  0  0  0  0  0  0  0  0  0  0
    3.0971    1.5505    5.3720 C   0  0  0  0  0  0  0  0  0  0  0  0
    3.6880    2.0656    1.6475 O   0  0  0  0  0  0  0  0  0  0  0  0
    3.1856    3.5298    3.0732 O   0  0  0  0  0  0  0  0  0  0  0  0
    3.7269    0.8150    6.4037 O   0  0  0  0  0  0  0  0  0  0  0  0
    1.8998    0.8010    5.3600 O   0  0  0  0  0  0  0  0  0  0  0  0
    3.4693    0.8846    0.9229 C   0  0  0  0  0  0  0  0  0  0  0  0
    2.0089    4.2759    2.8916 C   0  0  0  0  0  0  0  0  0  0  0  0
    4.8264    1.4441    7.0065 C   0  0  0  0  0  0  0  0  0  0  0  0
    0.7942    1.4388    5.9475 C   0  0  0  0  0  0  0  0  0  0  0  0
  1  2  1  0  0  0  0 
  1  3  1  0  0  0  0 
  2  4  1  0  0  0  0 
  2  5  1  0  0  0  0 
  3  6  1  0  0  0  0 
  3  7  1  0  0  0  0 
  4  8  1  0  0  0  0 
  5  9  1  0  0  0  0 
  6 10  1  0  0  0  0 
  7 11  1  0  0  0  0 
M  END
> <Name>
Propane, 1,1,3,3-tetramethoxy-

> <Source>
NIST3DMolFile

> <Tox>
183

> <CAS>
102-52-3

$$$$

  CDK

 13 12  0  0  0  0  0  0  0  0999 V2000
    3.9927   -1.1493    0.0000 O   0  0  0  0  0  0  0  0  0  0  0  0
    2.6578   -1.1493    0.0000 C   0  0  0  0  0  0  0  0  0  0  0  0
    1.9934   -2.3047    0.0000 O   0  0  0  0  0  0  0  0  0  0  0  0
    1.9934   -0.0000    0.0000 C   0  0  0  0  0  0  0  0  0  0  0  0
    2.6578   -3.4540    0.0000 C   0  0  0  0  0  0  0  0  0  0  0  0
    0.6645   -0.0000    0.0000 C   0  0  0  0  0  0  0  0  0  0  0  0
    1.9934   -4.6093    0.0000 C   0  0  0  0  0  0  0  0  0  0  0  0
    2.6578   -5.7586    0.0000 C   0  0  0  0  0  0  0  0  0  0  0  0
    0.6645   -4.6093    0.0000 C   0  0  0  0  0  0  0  0  0  0  0  0
    3.9927   -5.7586    0.0000 C   0  0  0  0  0  0  0  0  0  0  0  0
    0.0000   -5.7586    0.0000 C   0  0  0  0  0  0  0  0  0  0  0  0
    4.6572   -4.6093    0.0000 C   0  0  0  0  0  0  0  0  0  0  0  0
    5.9861   -4.6093    0.0000 C   0  0  0  0  0  0  0  0  0  0  0  0
  1  2  2  0  0  0  0 
  2  3  1  0  0  0  0 
  2  4  1  0  0  0  0 
  3  5  1  0  0  0  0 
  4  6  2  0  0  0  0 
  5  7  1  0  0  0  0 
  7  8  1  0  0  0  0 
  7  9  1  0  0  0  0 
  8 10  1  0  0  0  0 
  9 11  1  0  0  0  0 
 10 12  1  0  0  0  0 
 12 13  1  0  0  0  0 
M  END
> <Name>
2-ETHYLHEXYL ACRYLATE

> <Source>
DSSTox2DMolFile

> <Tox>
213.5

> <CAS>
103-11-7

$$$$

  CDK

 26 25  0  0  0  0  0  0  0  0999 V2000
   14.9694   -5.9739    0.0000 C   0  0  0  0  0  0  0  0  0  0  0  0
   16.1089   -5.3178    0.0000 C   0  0  0  0  0  0  0  0  0  0  0  0
   16.1089   -3.9884    0.0000 C   0  0  0  0  0  0  0  0  0  0  0  0
   14.9694   -3.3150    0.0000 C   0  0  0  0  0  0  0  0  0  0  0  0
   17.2657   -3.3150    0.0000 C   0  0  0  0  0  0  0  0  0  0  0  0
   13.8126   -3.9884    0.0000 O   0  0  0  0  0  0  0  0  0  0  0  0
   17.2657   -1.9856    0.0000 C   0  0  0  0  0  0  0  0  0  0  0  0
   12.6558   -3.3150    0.0000 C   0  0  0  0  0  0  0  0  0  0  0  0
   16.1089   -1.3295    0.0000 C   0  0  0  0  0  0  0  0  0  0  0  0
   12.6558   -1.9856    0.0000 O   0  0  0  0  0  0  0  0  0  0  0  0
   11.5162   -3.9884    0.0000 C   0  0  0  0  0  0  0  0  0  0  0  0
   16.1089   -0.0000    0.0000 C   0  0  0  0  0  0  0  0  0  0  0  0
   10.3594   -3.3150    0.0000 C   0  0  0  0  0  0  0  0  0  0  0  0
    9.2026   -3.9884    0.0000 C   0  0  0  0  0  0  0  0  0  0  0  0
    8.0631   -3.3150    0.0000 C   0  0  0  0  0  0  0  0  0  0  0  0
    6.9063   -3.9884    0.0000 C   0  0  0  0  0  0  0  0  0  0  0  0
    5.7495   -3.3150    0.0000 O   0  0  0  0  0  0  0  0  0  0  0  0
    6.9063   -5.3178    0.0000 O   0  0  0  0  0  0  0  0  0  0  0  0
    5.7495   -5.9739    0.0000 C   0  0  0  0  0  0  0  0  0  0  0  0
    4.6099   -5.3178    0.0000 C   0  0  0  0  0  0  0  0  0  0  0  0
    3.4531   -5.9739    0.0000 C   0  0  0  0  0  0  0  0  0  0  0  0
    4.6099   -3.9884    0.0000 C   0  0  0  0  0  0  0  0  0  0  0  0
    2.2963   -5.3178    0.0000 C   0  0  0  0  0  0  0  0  0  0  0  0
    3.4531   -3.3150    0.0000 C   0  0  0  0  0  0  0  0  0  0  0  0
    1.1568   -5.9739    0.0000 C   0  0  0  0  0  0  0  0  0  0  0  0
    0.0000   -5.3178    0.0000 C   0  0  0  0  0  0  0  0  0  0  0  0
  1  2  1  0  0  0  0 
  2  3  1  0  0  0  0 
  3  4  1  0  0  0  0 
  3  5  1  0  0  0  0 
  4  6  1  0  0  0  0 
  5  7  1  0  0  0  0 
  6  8  1  0  0  0  0 
  7  9  1  0  0  0  0 
  8 10  2  0  0  0  0 
  8 11  1  0  0  0  0 
  9 12  1  0  0  0  0 
 11 13  1  0  0  0  0 
 13 14  1  0  0  0  0 
 14 15  1  0  0  0  0 
 15 16  1  0  0  0  0 
 16 17  2  0  0  0  0 
 16 18  1  0  0  0  0 
 18 19  1  0  0  0  0 
 19 20  1  0  0  0  0 
 20 21  1  0  0  0  0 
 20 22  1  0  0  0  0 
 21 23  1  0  0  0  0 
 22 24  1  0  0  0  0 
 23 25  1  0  0  0  0 
 25 26  1  0  0  0  0 
M  END
> <Name>
DI-2-ETHYLHEXYL ADIPATE

> <Source>
DSSTox2DMolFile

> <Tox>
417

> <CAS>
103-23-1

$$$$

  CDK

 14 14  0  0  0  0  0  0  0  0999 V2000
   -2.1550    0.4243    0.0248 C   0  0  0  0  0  0  0  0  0  0  0  0
   -2.8102   -0.8609    0.5153 C   0  0  0  0  0  0  0  0  0  0  0  0
   -2.4976    1.1366   -0.8977 O   0  0  0  0  0  0  0  0  0  0  0  0
   -1.0502    0.7550    0.7595 O   0  0  0  0  0  0  0  0  0  0  0  0
   -4.3136   -0.6800    0.6329 C   0  0  0  0  0  0  0  0  0  0  0  0
   -2.4652   -1.9838   -0.4508 C   0  0  0  0  0  0  0  0  0  0  0  0
   -0.2298    1.8425    0.3593 C   0  0  0  0  0  0  0  0  0  0  0  0
    0.7136    1.4977   -0.7942 C   0  0  0  0  0  0  0  0  0  0  0  0
    1.7703    0.5199   -0.3951 C   0  0  0  0  0  0  0  0  0  0  0  0
    1.6386   -0.8334   -0.7091 C   0  0  0  0  0  0  0  0  0  0  0  0
    2.9031    0.9586    0.2932 C   0  0  0  0  0  0  0  0  0  0  0  0
    2.6311   -1.7354   -0.3416 C   0  0  0  0  0  0  0  0  0  0  0  0
    3.8924    0.0540    0.6599 C   0  0  0  0  0  0  0  0  0  0  0  0
    3.7585   -1.2936    0.3421 C   0  0  0  0  0  0  0  0  0  0  0  0
  1  2  1  0  0  0  0 
  1  3  2  0  0  0  0 
  1  4  1  0  0  0  0 
  2  5  1  0  0  0  0 
  2  6  1  0  0  0  0 
  4  7  1  0  0  0  0 
  7  8  1  0  0  0  0 
  8  9  1  0  0  0  0 
  9 10  1  0  0  0  0 
  9 11  2  0  0  0  0 
 10 12  2  0  0  0  0 
 13 11  1  0  0  0  0 
 12 14  1  0  0  0  0 
 14 13  2  0  0  0  0 
M  END
> <Name>
Propanoic acid, 2-methyl-, 2-phenylethyl ester

> <Source>
DougDB3DMolFile

> <Tox>
250

> <CAS>
103-48-0

$$$$

  CDK

 15 16  0  0  0  0  0  0  0  0999 V2000
    4.6040   -1.9981    0.0000 O   0  0  0  0  0  0  0  0  0  0  0  0
    5.7550   -2.6611    0.0000 C   0  0  0  0  0  0  0  0  0  0  0  0
    3.4530   -2.6611    0.0000 C   0  0  0  0  0  0  0  0  0  0  0  0
    6.9060   -1.9981    0.0000 C   0  0  0  0  0  0  0  0  0  0  0  0
    2.3020   -1.9981    0.0000 C   0  0  0  0  0  0  0  0  0  0  0  0
    6.9060   -0.6630    0.0000 C   0  0  0  0  0  0  0  0  0  0  0  0
    8.0570   -2.6611    0.0000 C   0  0  0  0  0  0  0  0  0  0  0  0
    1.1510   -2.6611    0.0000 C   0  0  0  0  0  0  0  0  0  0  0  0
    2.3020   -0.6630    0.0000 C   0  0  0  0  0  0  0  0  0  0  0  0
    8.0570   -0.0000    0.0000 C   0  0  0  0  0  0  0  0  0  0  0  0
    9.2080   -1.9981    0.0000 C   0  0  0  0  0  0  0  0  0  0  0  0
    0.0000   -1.9981    0.0000 C   0  0  0  0  0  0  0  0  0  0  0  0
    1.1510   -0.0000    0.0000 C   0  0  0  0  0  0  0  0  0  0  0  0
    9.2080   -0.6630    0.0000 C   0  0  0  0  0  0  0  0  0  0  0  0
    0.0000   -0.6630    0.0000 C   0  0  0  0  0  0  0  0  0  0  0  0
  1  2  1  0  0  0  0 
  1  3  1  0  0  0  0 
  2  4  1  0  0  0  0 
  3  5  1  0  0  0  0 
  4  6  2  0  0  0  0 
  4  7  1  0  0  0  0 
  5  8  2  0  0  0  0 
  5  9  1  0  0  0  0 
  6 10  1  0  0  0  0 
 11  7  2  0  0  0  0 
  8 12  1  0  0  0  0 
 13  9  2  0  0  0  0 
 10 14  2  0  0  0  0 
 14 11  1  0  0  0  0 
 12 15  2  0  0  0  0 
 15 13  1  0  0  0  0 
M  END
> <Name>
DIBENZYL ETHER

> <Source>
DSSTox2DMolFile

> <Tox>
298

> <CAS>
103-50-4

$$$$

  CDK

  9  9  0  0  0  0  0  0  0  0999 V2000
    0.0000   -0.0000    0.0000 O   0  0  0  0  0  0  0  0  0  0  0  0
    1.3283   -0.0000    0.0000 C   0  0  0  0  0  0  0  0  0  0  0  0
    1.9925   -1.1548    0.0000 N   0  0  0  0  0  0  0  0  0  0  0  0
    3.3269   -1.1548    0.0000 C   0  0  0  0  0  0  0  0  0  0  0  0
    3.9910   -0.0000    0.0000 C   0  0  0  0  0  0  0  0  0  0  0  0
    3.9910   -2.3037    0.0000 C   0  0  0  0  0  0  0  0  0  0  0  0
    5.3194   -0.0000    0.0000 C   0  0  0  0  0  0  0  0  0  0  0  0
    5.3194   -2.3037    0.0000 C   0  0  0  0  0  0  0  0  0  0  0  0
    5.9836   -1.1548    0.0000 C   0  0  0  0  0  0  0  0  0  0  0  0
  1  2  2  0  0  0  0 
  2  3  1  0  0  0  0 
  3  4  1  0  0  0  0 
  4  5  2  0  0  0  0 
  4  6  1  0  0  0  0 
  5  7  1  0  0  0  0 
  8  6  2  0  0  0  0 
  7  9  2  0  0  0  0 
  9  8  1  0  0  0  0 
M  END
> <Name>
FORMANILIDE

> <Source>
DSSTox2DMolFile

> <Tox>
271

> <CAS>
103-70-8

$$$$

  CDK

  9  9  0  0  0  0  0  0  0  0999 V2000
    0.0000   -1.3304    0.0000 S   0  0  0  0  0  0  0  0  0  0  0  0
    1.1518   -1.9984    0.0000 C   0  0  0  0  0  0  0  0  0  0  0  0
    2.3037   -2.6607    0.0000 N   0  0  0  0  0  0  0  0  0  0  0  0
    3.4555   -1.9984    0.0000 C   0  0  0  0  0  0  0  0  0  0  0  0
    3.4555   -0.6681    0.0000 C   0  0  0  0  0  0  0  0  0  0  0  0
    4.6073   -2.6607    0.0000 C   0  0  0  0  0  0  0  0  0  0  0  0
    4.6073   -0.0000    0.0000 C   0  0  0  0  0  0  0  0  0  0  0  0
    5.7591   -1.9984    0.0000 C   0  0  0  0  0  0  0  0  0  0  0  0
    5.7591   -0.6681    0.0000 C   0  0  0  0  0  0  0  0  0  0  0  0
  1  2  2  0  0  0  0 
  2  3  2  0  0  0  0 
  3  4  1  0  0  0  0 
  4  5  2  0  0  0  0 
  4  6  1  0  0  0  0 
  5  7  1  0  0  0  0 
  8  6  2  0  0  0  0 
  7  9  2  0  0  0  0 
  9  8  1  0  0  0  0 
M  END
> <Name>
PHENYLISOTHIOCYANATE

> <Source>
DSSTox2DMolFile

> <Tox>
221

> <CAS>
103-72-0

$$$$

  CDK

 11 11  0  0  0  0  0  0  0  0999 V2000
    1.1539   -0.6633    0.0000 O   0  0  0  0  0  0  0  0  0  0  0  0
    1.1539   -1.9968    0.0000 C   0  0  0  0  0  0  0  0  0  0  0  0
    2.3008   -2.6601    0.0000 N   0  0  0  0  0  0  0  0  0  0  0  0
    0.0000   -2.6601    0.0000 C   0  0  0  0  0  0  0  0  0  0  0  0
    3.4547   -1.9968    0.0000 C   0  0  0  0  0  0  0  0  0  0  0  0
    3.4547   -0.6633    0.0000 C   0  0  0  0  0  0  0  0  0  0  0  0
    4.6086   -2.6601    0.0000 C   0  0  0  0  0  0  0  0  0  0  0  0
    4.6086   -0.0000    0.0000 C   0  0  0  0  0  0  0  0  0  0  0  0
    5.7555   -1.9968    0.0000 C   0  0  0  0  0  0  0  0  0  0  0  0
    5.7555   -0.6633    0.0000 C   0  0  0  0  0  0  0  0  0  0  0  0
    6.9094   -0.0000    0.0000 C   0  0  0  0  0  0  0  0  0  0  0  0
  1  2  2  0  0  0  0 
  2  3  1  0  0  0  0 
  2  4  1  0  0  0  0 
  3  5  1  0  0  0  0 
  5  6  2  0  0  0  0 
  5  7  1  0  0  0  0 
  6  8  1  0  0  0  0 
  9  7  2  0  0  0  0 
  8 10  2  0  0  0  0 
 10  9  1  0  0  0  0 
 10 11  1  0  0  0  0 
M  END
> <Name>
4-METHYLACETANILIDE

> <Source>
DSSTox2DMolFile

> <Tox>
307

> <CAS>
103-89-9

$$$$

  CDK

 10 10  0  0  0  0  0  0  0  0999 V2000
   -1.7107    0.0397    0.0000 C   0  0  0  0  0  0  0  0  0  0  0  0
   -1.2152   -1.2630    0.0000 C   0  0  0  0  0  0  0  0  0  0  0  0
   -0.8501    1.1342    0.0000 C   0  0  0  0  0  0  0  0  0  0  0  0
   -3.3765    0.2938    0.0000 Cl  0  0  0  0  0  0  0  0  0  0  0  0
    0.1562   -1.4793    0.0000 C   0  0  0  0  0  0  0  0  0  0  0  0
    0.5234    0.9288    0.0000 C   0  0  0  0  0  0  0  0  0  0  0  0
    1.0259   -0.3794    0.0000 C   0  0  0  0  0  0  0  0  0  0  0  0
    2.4166   -0.6663    0.0000 N   0  0  0  0  0  0  0  0  0  0  0  0
    3.4037    0.1202    0.0000 C   0  0  0  0  0  0  0  0  0  0  0  0
    4.4552    0.6491    0.0000 O   0  0  0  0  0  0  0  0  0  0  0  0
  1  2  1  0  0  0  0 
  1  3  2  0  0  0  0 
  1  4  1  0  0  0  0 
  2  5  2  0  0  0  0 
  6  3  1  0  0  0  0 
  5  7  1  0  0  0  0 
  7  6  2  0  0  0  0 
  7  8  1  0  0  0  0 
  8  9  2  0  0  0  0 
  9 10  2  0  0  0  0 
M  END
> <Name>
1-CHLORO-4-ISOCYANATOBENZENE

> <Source>
DougDB3DMolFile

> <Tox>
203.5

> <CAS>
104-12-1

$$$$

  CDK

 12 12  0  0  0  0  0  0  0  0999 V2000
    6.9070   -0.0000    0.0000 N   0  0  0  0  0  0  0  0  0  0  0  0
    8.0581   -0.6631    0.0000 C   0  0  0  0  0  0  0  0  0  0  0  0
    5.7558   -0.6631    0.0000 C   0  0  0  0  0  0  0  0  0  0  0  0
    9.2093   -1.3353    0.0000 O   0  0  0  0  0  0  0  0  0  0  0  0
    5.7558   -1.9984    0.0000 C   0  0  0  0  0  0  0  0  0  0  0  0
    4.6046   -0.0000    0.0000 C   0  0  0  0  0  0  0  0  0  0  0  0
    4.6046   -2.6615    0.0000 C   0  0  0  0  0  0  0  0  0  0  0  0
    3.4535   -0.6631    0.0000 C   0  0  0  0  0  0  0  0  0  0  0  0
    3.4535   -1.9984    0.0000 C   0  0  0  0  0  0  0  0  0  0  0  0
    2.3023   -2.6615    0.0000 N   0  0  0  0  0  0  0  0  0  0  0  0
    1.1512   -1.9984    0.0000 C   0  0  0  0  0  0  0  0  0  0  0  0
    0.0000   -1.3353    0.0000 O   0  0  0  0  0  0  0  0  0  0  0  0
  1  2  2  0  0  0  0 
  1  3  1  0  0  0  0 
  2  4  2  0  0  0  0 
  3  5  2  0  0  0  0 
  3  6  1  0  0  0  0 
  5  7  1  0  0  0  0 
  8  6  2  0  0  0  0 
  7  9  2  0  0  0  0 
  9  8  1  0  0  0  0 
  9 10  1  0  0  0  0 
 10 11  2  0  0  0  0 
 11 12  2  0  0  0  0 
M  END
> <Name>
Benzene, 1,4-diisocyanato-

> <Source>
DSSTox2DMolFile

> <Tox>
260

> <CAS>
104-49-4

$$$$

  CDK

 13 13  0  0  0  0  0  0  0  0999 V2000
    9.9799   -1.0749    0.0000 C   0  0  0  0  0  0  0  0  0  0  0  0
    9.2105   -2.1499    0.0000 O   0  0  0  0  0  0  0  0  0  0  0  0
   11.3151   -1.0749    0.0000 O   0  0  0  0  0  0  0  0  0  0  0  0
    9.2105   -0.0000    0.0000 C   0  0  0  0  0  0  0  0  0  0  0  0
    7.9545   -1.7312    0.0000 C   0  0  0  0  0  0  0  0  0  0  0  0
    7.9545   -0.3960    0.0000 C   0  0  0  0  0  0  0  0  0  0  0  0
    6.8796   -2.5119    0.0000 C   0  0  0  0  0  0  0  0  0  0  0  0
    5.6575   -1.9688    0.0000 C   0  0  0  0  0  0  0  0  0  0  0  0
    4.5826   -2.7609    0.0000 C   0  0  0  0  0  0  0  0  0  0  0  0
    3.3606   -2.2064    0.0000 C   0  0  0  0  0  0  0  0  0  0  0  0
    2.2970   -2.9985    0.0000 C   0  0  0  0  0  0  0  0  0  0  0  0
    1.0749   -2.4554    0.0000 C   0  0  0  0  0  0  0  0  0  0  0  0
    0.0000   -3.2361    0.0000 C   0  0  0  0  0  0  0  0  0  0  0  0
  1  2  1  0  0  0  0 
  1  3  2  0  0  0  0 
  1  4  1  0  0  0  0 
  2  5  1  0  0  0  0 
  4  6  1  0  0  0  0 
  5  7  1  0  0  0  0 
  5  6  1  0  0  0  0 
  7  8  1  0  0  0  0 
  8  9  1  0  0  0  0 
  9 10  1  0  0  0  0 
 11 10  1  0  0  0  0 
 12 11  1  0  0  0  0 
 12 13  1  0  0  0  0 
M  END
> <Name>
2(3H)-Furanone, 5-heptyldihydro-

> <Source>
DSSTox2DMolFile

> <Tox>
286

> <CAS>
104-67-6

$$$$

  CDK

 16 16  0  0  0  0  0  0  0  0999 V2000
    6.0306    4.1682    3.2056 C   0  0  0  0  0  0  0  0  0  0  0  0
    5.7815    5.5730    3.7337 C   0  0  0  0  0  0  0  0  0  0  0  0
    7.1038    3.4505    4.0088 C   0  0  0  0  0  0  0  0  0  0  0  0
    4.7228    6.2631    2.9360 C   0  0  0  0  0  0  0  0  0  0  0  0
    7.1477    1.9665    3.6710 C   0  0  0  0  0  0  0  0  0  0  0  0
    3.4152    6.3361    3.4173 C   0  0  0  0  0  0  0  0  0  0  0  0
    5.0374    6.8403    1.7042 C   0  0  0  0  0  0  0  0  0  0  0  0
    5.8824    1.2608    4.1351 C   0  0  0  0  0  0  0  0  0  0  0  0
    2.4344    6.9834    2.6747 C   0  0  0  0  0  0  0  0  0  0  0  0
    4.0530    7.4852    0.9650 C   0  0  0  0  0  0  0  0  0  0  0  0
    5.7745    1.2331    5.6534 C   0  0  0  0  0  0  0  0  0  0  0  0
    2.7510    7.5576    1.4483 C   0  0  0  0  0  0  0  0  0  0  0  0
    4.3533    0.9509    6.1143 C   0  0  0  0  0  0  0  0  0  0  0  0
    3.4133    2.0868    5.7389 C   0  0  0  0  0  0  0  0  0  0  0  0
    1.9661    1.7527    6.0563 C   0  0  0  0  0  0  0  0  0  0  0  0
    1.0456    2.8979    5.6983 C   0  0  0  0  0  0  0  0  0  0  0  0
  1  2  1  0  0  0  0 
  1  3  1  0  0  0  0 
  2  4  1  0  0  0  0 
  3  5  1  0  0  0  0 
  4  6  2  0  0  0  0 
  7  4  1  0  0  0  0 
  5  8  1  0  0  0  0 
  6  9  1  0  0  0  0 
 10  7  2  0  0  0  0 
  8 11  1  0  0  0  0 
  9 12  2  0  0  0  0 
 12 10  1  0  0  0  0 
 11 13  1  0  0  0  0 
 13 14  1  0  0  0  0 
 14 15  1  0  0  0  0 
 15 16  1  0  0  0  0 
M  END
> <Name>
1-PHENYLDECANE

> <Source>
NIST3DMolFile

> <Tox>
298

> <CAS>
104-72-3

$$$$

  CDK

  9  9  0  0  0  0  0  0  0  0999 V2000
    0.0000    0.0000    0.0000 N   0  0  0  0  0  0  0  0  0  0  0  0
    0.5039    0.8566    0.0000 C   0  0  0  0  0  0  0  0  0  0  0  0
    1.5116    0.8566    0.0000 C   0  0  0  0  0  0  0  0  0  0  0  0
    2.0155    1.7132    0.0000 C   0  0  0  0  0  0  0  0  0  0  0  0
    2.0155    0.0000    0.0000 C   0  0  0  0  0  0  0  0  0  0  0  0
    3.0233    1.7132    0.0000 C   0  0  0  0  0  0  0  0  0  0  0  0
    3.0233    0.0000    0.0000 C   0  0  0  0  0  0  0  0  0  0  0  0
    3.5271    0.8566    0.0000 C   0  0  0  0  0  0  0  0  0  0  0  0
    4.5349    0.8566    0.0000 C   0  0  0  0  0  0  0  0  0  0  0  0
  1  2  1  0  0  0  0 
  2  3  1  0  0  0  0 
  4  3  2  0  0  0  0 
  3  5  1  0  0  0  0 
  6  4  1  0  0  0  0 
  5  7  2  0  0  0  0 
  8  6  2  0  0  0  0 
  7  8  1  0  0  0  0 
  8  9  1  0  0  0  0 
M  END
> <Name>
BENZENEMETHANAMINE, 4-METHYL-

> <Source>
NIST2DMolFile

> <Tox>
195

> <CAS>
104-84-7

$$$$

  CDK

  9  9  0  0  0  0  0  0  0  0999 V2000
    0.0000   -1.1509    0.0000 N   0  0  0  0  0  0  0  0  0  0  0  0
    1.3305   -1.1509    0.0000 C   0  0  0  0  0  0  0  0  0  0  0  0
    2.6611   -1.1509    0.0000 C   0  0  0  0  0  0  0  0  0  0  0  0
    3.3263   -0.0000    0.0000 C   0  0  0  0  0  0  0  0  0  0  0  0
    3.3263   -2.3018    0.0000 C   0  0  0  0  0  0  0  0  0  0  0  0
    4.6568   -0.0000    0.0000 C   0  0  0  0  0  0  0  0  0  0  0  0
    4.6568   -2.3018    0.0000 C   0  0  0  0  0  0  0  0  0  0  0  0
    5.3221   -1.1509    0.0000 C   0  0  0  0  0  0  0  0  0  0  0  0
    6.6526   -1.1509    0.0000 C   0  0  0  0  0  0  0  0  0  0  0  0
  1  2  3  0  0  0  0 
  2  3  1  0  0  0  0 
  3  4  2  0  0  0  0 
  3  5  1  0  0  0  0 
  4  6  1  0  0  0  0 
  7  5  2  0  0  0  0 
  6  8  2  0  0  0  0 
  8  7  1  0  0  0  0 
  8  9  1  0  0  0  0 
M  END
> <Name>
4-METHYLBENZONITRILE

> <Source>
DSSTox2DMolFile

> <Tox>
217

> <CAS>
104-85-8

$$$$

  CDK

  9  9  0  0  0  0  0  0  0  0999 V2000
   -0.9576   -0.2193   -0.0003 C   0  0  0  0  0  0  0  0  0  0  0  0
   -0.1262   -1.3425   -0.0013 C   0  0  0  0  0  0  0  0  0  0  0  0
   -0.3913    1.0559   -0.0027 C   0  0  0  0  0  0  0  0  0  0  0  0
   -2.4274   -0.4169    0.0021 C   0  0  0  0  0  0  0  0  0  0  0  0
    1.2532   -1.1915   -0.0039 C   0  0  0  0  0  0  0  0  0  0  0  0
    0.9904    1.2063   -0.0053 C   0  0  0  0  0  0  0  0  0  0  0  0
   -3.2294    0.4900    0.0035 O   0  0  0  0  0  0  0  0  0  0  0  0
    1.8213    0.0852   -0.0045 C   0  0  0  0  0  0  0  0  0  0  0  0
    3.2978    0.2439    0.0077 C   0  0  0  0  0  0  0  0  0  0  0  0
  1  2  1  0  0  0  0 
  1  3  2  0  0  0  0 
  1  4  1  0  0  0  0 
  2  5  2  0  0  0  0 
  3  6  1  0  0  0  0 
  4  7  2  0  0  0  0 
  8  5  1  0  0  0  0 
  8  6  2  0  0  0  0 
  8  9  1  0  0  0  0 
M  END
> <Name>
P-TOLUALDEHYDE

> <Source>
DougDB3DMolFile

> <Tox>
204.5

> <CAS>
104-87-0

$$$$

  CDK

  9  9  0  0  0  0  0  0  0  0999 V2000
    2.4592    0.0000    0.0000 C   0  0  0  0  0  0  0  0  0  0  0  0
    1.4858    0.0000    0.0000 C   0  0  0  0  0  0  0  0  0  0  0  0
    3.0228    0.8710    0.0000 C   0  0  0  0  0  0  0  0  0  0  0  0
    0.9734    0.8710    0.0000 C   0  0  0  0  0  0  0  0  0  0  0  0
    2.4592    1.7419    0.0000 C   0  0  0  0  0  0  0  0  0  0  0  0
    3.9962    0.8710    0.0000 S   0  0  0  0  0  0  0  0  0  0  0  0
    1.4858    1.7419    0.0000 C   0  0  0  0  0  0  0  0  0  0  0  0
    0.0000    0.8710    0.0000 N   0  0  0  0  0  0  0  0  0  0  0  0
    4.5086    0.0000    0.0000 C   0  0  0  0  0  0  0  0  0  0  0  0
  2  1  2  0  0  0  0 
  1  3  1  0  0  0  0 
  4  2  1  0  0  0  0 
  3  5  2  0  0  0  0 
  3  6  1  0  0  0  0 
  7  4  2  0  0  0  0 
  4  8  1  0  0  0  0 
  5  7  1  0  0  0  0 
  6  9  1  0  0  0  0 
M  END
> <Name>
Benzenamine, 4-(methylthio)-

> <Source>
NIST2DMolFile

> <Tox>
272.5

> <CAS>
104-96-1

$$$$

  CDK

 10 10  0  0  0  0  0  0  0  0999 V2000
    4.6448   -1.1562    0.0000 C   0  0  0  0  0  0  0  0  0  0  0  0
    3.9869   -2.3058    0.0000 C   0  0  0  0  0  0  0  0  0  0  0  0
    3.9869   -0.0000    0.0000 C   0  0  0  0  0  0  0  0  0  0  0  0
    5.9737   -1.1562    0.0000 C   0  0  0  0  0  0  0  0  0  0  0  0
    2.6579   -2.3058    0.0000 C   0  0  0  0  0  0  0  0  0  0  0  0
    2.6579   -0.0000    0.0000 C   0  0  0  0  0  0  0  0  0  0  0  0
    6.6449   -0.0000    0.0000 C   0  0  0  0  0  0  0  0  0  0  0  0
    1.9868   -1.1562    0.0000 C   0  0  0  0  0  0  0  0  0  0  0  0
    0.6578   -1.1562    0.0000 C   0  0  0  0  0  0  0  0  0  0  0  0
    0.0000   -2.3058    0.0000 C   0  0  0  0  0  0  0  0  0  0  0  0
  1  2  2  0  0  0  0 
  1  3  1  0  0  0  0 
  1  4  1  0  0  0  0 
  2  5  1  0  0  0  0 
  6  3  2  0  0  0  0 
  4  7  1  0  0  0  0 
  5  8  2  0  0  0  0 
  8  6  1  0  0  0  0 
  8  9  1  0  0  0  0 
  9 10  1  0  0  0  0 
M  END
> <Name>
P-DIETHYLBENZENE

> <Source>
DSSTox2DMolFile

> <Tox>
183.7

> <CAS>
105-05-5

$$$$

  CDK

  7  6  0  0  0  0  0  0  0  0999 V2000
    3.4607   -1.3266    0.0000 C   0  0  0  0  0  0  0  0  0  0  0  0
    3.4607   -0.0000    0.0000 O   0  0  0  0  0  0  0  0  0  0  0  0
    4.6142   -1.9841    0.0000 O   0  0  0  0  0  0  0  0  0  0  0  0
    2.3071   -1.9841    0.0000 C   0  0  0  0  0  0  0  0  0  0  0  0
    5.7678   -1.3266    0.0000 C   0  0  0  0  0  0  0  0  0  0  0  0
    1.1536   -1.3093    0.0000 C   0  0  0  0  0  0  0  0  0  0  0  0
    0.0000   -0.6402    0.0000 N   0  0  0  0  0  0  0  0  0  0  0  0
  1  2  2  0  0  0  0 
  1  3  1  0  0  0  0 
  1  4  1  0  0  0  0 
  3  5  1  0  0  0  0 
  4  6  1  0  0  0  0 
  6  7  3  0  0  0  0 
M  END
> <Name>
METHYL CYANOACETATE

> <Source>
DSSTox2DMolFile

> <Tox>
200.5

> <CAS>
105-34-0

$$$$

  CDK

  7  6  0  0  0  0  0  0  0  0999 V2000
   -0.5202    0.1666    0.0155 C   0  0  0  0  0  0  0  0  0  0  0  0
   -1.6331   -0.8569    0.0343 C   0  0  0  0  0  0  0  0  0  0  0  0
   -0.5983    1.3790    0.0121 O   0  0  0  0  0  0  0  0  0  0  0  0
    0.7138   -0.4196    0.0046 O   0  0  0  0  0  0  0  0  0  0  0  0
   -3.0058   -0.2293   -0.0408 C   0  0  0  0  0  0  0  0  0  0  0  0
    1.8691    0.4207   -0.0076 C   0  0  0  0  0  0  0  0  0  0  0  0
    3.0724   -0.5024   -0.0150 C   0  0  0  0  0  0  0  0  0  0  0  0
  1  2  1  0  0  0  0 
  1  3  2  0  0  0  0 
  1  4  1  0  0  0  0 
  2  5  1  0  0  0  0 
  4  6  1  0  0  0  0 
  6  7  1  0  0  0  0 
M  END
> <Name>
ETHYL PROPIONATE

> <Source>
DougDB3DMolFile

> <Tox>
99.1

> <CAS>
105-37-3

$$$$

  CDK

  8  7  0  0  0  0  0  0  0  0999 V2000
    3.4668   -0.7003    0.0000 C   0  0  0  0  0  0  0  0  0  0  0  0
    2.3089   -0.0000    0.0000 O   0  0  0  0  0  0  0  0  0  0  0  0
    4.5970   -0.0277    0.0000 O   0  0  0  0  0  0  0  0  0  0  0  0
    3.4668   -2.0177    0.0000 C   0  0  0  0  0  0  0  0  0  0  0  0
    1.1787   -0.6518    0.0000 C   0  0  0  0  0  0  0  0  0  0  0  0
    5.7896   -0.7003    0.0000 C   0  0  0  0  0  0  0  0  0  0  0  0
    0.0000   -0.0277    0.0000 C   0  0  0  0  0  0  0  0  0  0  0  0
    6.9337   -0.0485    0.0000 C   0  0  0  0  0  0  0  0  0  0  0  0
  1  2  1  0  0  0  0 
  1  3  1  0  0  0  0 
  1  4  1  0  0  0  0 
  2  5  1  0  0  0  0 
  3  6  1  0  0  0  0 
  5  7  1  0  0  0  0 
  6  8  1  0  0  0  0 
M  END
> <Name>
1,1-DIETHOXYETHANE

> <Source>
DSSTox2DMolFile

> <Tox>
102.2

> <CAS>
105-57-7

$$$$

  CDK

  8  7  0  0  0  0  0  0  0  0999 V2000
    3.4577   -0.0000    0.0000 O   0  0  0  0  0  0  0  0  0  0  0  0
    3.4577   -1.3312    0.0000 C   0  0  0  0  0  0  0  0  0  0  0  0
    4.6103   -1.9939    0.0000 O   0  0  0  0  0  0  0  0  0  0  0  0
    2.3051   -1.9939    0.0000 O   0  0  0  0  0  0  0  0  0  0  0  0
    5.7628   -1.3312    0.0000 C   0  0  0  0  0  0  0  0  0  0  0  0
    1.1526   -1.3312    0.0000 C   0  0  0  0  0  0  0  0  0  0  0  0
    5.7628   -0.0000    0.0000 C   0  0  0  0  0  0  0  0  0  0  0  0
    0.0000   -1.9939    0.0000 C   0  0  0  0  0  0  0  0  0  0  0  0
  1  2  2  0  0  0  0 
  2  3  1  0  0  0  0 
  2  4  1  0  0  0  0 
  3  5  1  0  0  0  0 
  4  6  1  0  0  0  0 
  5  7  1  0  0  0  0 
  6  8  1  0  0  0  0 
M  END
> <Name>
DIETHYL CARBONATE

> <Source>
DSSTox2DMolFile

> <Tox>
126

> <CAS>
105-58-8

$$$$

  CDK

  8  8  0  0  0  0  0  0  0  0999 V2000
    0.0000   -1.4934    0.0000 O   0  0  0  0  0  0  0  0  0  0  0  0
    1.3279   -1.4934    0.0000 C   0  0  0  0  0  0  0  0  0  0  0  0
    1.9049   -0.2927    0.0000 C   0  0  0  0  0  0  0  0  0  0  0  0
    1.9049   -2.6898    0.0000 N   0  0  0  0  0  0  0  0  0  0  0  0
    3.2031   -0.0000    0.0000 C   0  0  0  0  0  0  0  0  0  0  0  0
    3.2031   -2.9868    0.0000 C   0  0  0  0  0  0  0  0  0  0  0  0
    4.2426   -0.8273    0.0000 C   0  0  0  0  0  0  0  0  0  0  0  0
    4.2426   -2.1595    0.0000 C   0  0  0  0  0  0  0  0  0  0  0  0
  1  2  2  0  0  0  0 
  2  3  1  0  0  0  0 
  2  4  1  0  0  0  0 
  3  5  1  0  0  0  0 
  6  4  1  0  0  0  0 
  5  7  1  0  0  0  0 
  8  6  1  0  0  0  0 
  7  8  1  0  0  0  0 
M  END
> <Name>
CAPROLACTAM

> <Source>
DSSTox2DMolFile

> <Tox>
270

> <CAS>
105-60-2

$$$$

  CDK

  9  9  0  0  0  0  0  0  0  0999 V2000
    4.6082   -0.0000    0.0000 O   0  0  0  0  0  0  0  0  0  0  0  0
    3.4561   -0.6636    0.0000 C   0  0  0  0  0  0  0  0  0  0  0  0
    3.4561   -1.9953    0.0000 C   0  0  0  0  0  0  0  0  0  0  0  0
    2.3041   -0.0000    0.0000 C   0  0  0  0  0  0  0  0  0  0  0  0
    4.6082   -2.6589    0.0000 C   0  0  0  0  0  0  0  0  0  0  0  0
    2.3041   -2.6589    0.0000 C   0  0  0  0  0  0  0  0  0  0  0  0
    1.1520   -0.6636    0.0000 C   0  0  0  0  0  0  0  0  0  0  0  0
    1.1520   -1.9953    0.0000 C   0  0  0  0  0  0  0  0  0  0  0  0
    0.0000   -2.6589    0.0000 C   0  0  0  0  0  0  0  0  0  0  0  0
  1  2  1  0  0  0  0 
  2  3  2  0  0  0  0 
  2  4  1  0  0  0  0 
  3  5  1  0  0  0  0 
  3  6  1  0  0  0  0 
  7  4  2  0  0  0  0 
  6  8  2  0  0  0  0 
  8  7  1  0  0  0  0 
  8  9  1  0  0  0  0 
M  END
> <Name>
2,4-DIMETHYLPHENOL

> <Source>
DSSTox2DMolFile

> <Tox>
210.9

> <CAS>
105-67-9

$$$$

  CDK

 10  9  0  0  0  0  0  0  0  0999 V2000
    4.3115    1.5040    0.0000 C   0  0  0  0  0  0  0  0  0  0  0  0
    3.4592    1.0027    0.0000 N   0  0  0  0  0  0  0  0  0  0  0  0
    5.2139    1.0027    0.0000 C   0  0  0  0  0  0  0  0  0  0  0  0
    2.6069    1.5040    0.0000 C   0  0  0  0  0  0  0  0  0  0  0  0
    3.4592    0.0000    0.0000 C   0  0  0  0  0  0  0  0  0  0  0  0
    6.0661    1.5040    0.0000 C   0  0  0  0  0  0  0  0  0  0  0  0
    1.7045    1.0027    0.0000 C   0  0  0  0  0  0  0  0  0  0  0  0
    6.9184    1.0027    0.0000 N   0  0  0  0  0  0  0  0  0  0  0  0
    0.8523    1.5040    0.0000 C   0  0  0  0  0  0  0  0  0  0  0  0
    0.0000    1.0027    0.0000 N   0  0  0  0  0  0  0  0  0  0  0  0
  1  2  1  0  0  0  0 
  1  3  1  0  0  0  0 
  2  4  1  0  0  0  0 
  2  5  1  0  0  0  0 
  3  6  1  0  0  0  0 
  4  7  1  0  0  0  0 
  6  8  1  0  0  0  0 
  7  9  1  0  0  0  0 
  9 10  1  0  0  0  0 
M  END
> <Name>
1,3-Propanediamine, N-(3-aminopropyl)-N-methyl-

> <Source>
NIST2DMolFile

> <Tox>
232.5

> <CAS>
105-83-9

$$$$

  CDK

 14 13  0  0  0  0  0  0  0  0999 V2000
   10.3669   -0.0000    0.0000 O   0  0  0  0  0  0  0  0  0  0  0  0
   10.3669   -1.3247    0.0000 C   0  0  0  0  0  0  0  0  0  0  0  0
    9.2150   -1.9927    0.0000 O   0  0  0  0  0  0  0  0  0  0  0  0
   11.5188   -1.9927    0.0000 C   0  0  0  0  0  0  0  0  0  0  0  0
    8.0631   -1.3247    0.0000 C   0  0  0  0  0  0  0  0  0  0  0  0
    6.9113   -1.9927    0.0000 C   0  0  0  0  0  0  0  0  0  0  0  0
    5.7594   -1.3247    0.0000 C   0  0  0  0  0  0  0  0  0  0  0  0
    4.6075   -1.9927    0.0000 C   0  0  0  0  0  0  0  0  0  0  0  0
    5.7594   -0.0000    0.0000 C   0  0  0  0  0  0  0  0  0  0  0  0
    3.4556   -1.3247    0.0000 C   0  0  0  0  0  0  0  0  0  0  0  0
    2.3038   -1.9927    0.0000 C   0  0  0  0  0  0  0  0  0  0  0  0
    1.1519   -1.3247    0.0000 C   0  0  0  0  0  0  0  0  0  0  0  0
    0.0000   -1.9927    0.0000 C   0  0  0  0  0  0  0  0  0  0  0  0
    1.1519   -0.0000    0.0000 C   0  0  0  0  0  0  0  0  0  0  0  0
  1  2  2  0  0  0  0 
  2  3  1  0  0  0  0 
  2  4  1  0  0  0  0 
  3  5  1  0  0  0  0 
  5  6  1  0  0  0  0 
  6  7  2  0  0  0  0 
  7  8  1  0  0  0  0 
  7  9  1  0  0  0  0 
  8 10  1  0  0  0  0 
 10 11  1  0  0  0  0 
 11 12  2  0  0  0  0 
 12 13  1  0  0  0  0 
 12 14  1  0  0  0  0 
M  END
> <Name>
GERANIOL ACETATE

> <Source>
DSSTox2DMolFile

> <Tox>
240

> <CAS>
105-87-3

$$$$

  CDK

 15 14  0  0  0  0  0  0  0  0999 V2000
    0.0000    2.0307    0.0000 C   0  0  0  0  0  0  0  0  0  0  0  0
    0.0000    2.9953    0.0000 C   0  0  0  0  0  0  0  0  0  0  0  0
    0.8630    1.5230    0.0000 C   0  0  0  0  0  0  0  0  0  0  0  0
    0.8630    3.5029    0.0000 C   0  0  0  0  0  0  0  0  0  0  0  0
    0.8630    0.5077    0.0000 C   0  0  0  0  0  0  0  0  0  0  0  0
    1.7768    2.9953    0.0000 C   0  0  0  0  0  0  0  0  0  0  0  0
    0.8630    4.5183    0.0000 C   0  0  0  0  0  0  0  0  0  0  0  0
    1.7261    0.0508    0.0000 C   0  0  0  0  0  0  0  0  0  0  0  0
    0.0000    0.0000    0.0000 C   0  0  0  0  0  0  0  0  0  0  0  0
    1.7768    2.0307    0.0000 C   0  0  0  0  0  0  0  0  0  0  0  0
    2.5891    1.5230    0.0000 O   0  0  0  0  0  0  0  0  0  0  0  0
    3.5029    2.0307    0.0000 C   0  0  0  0  0  0  0  0  0  0  0  0
    4.3660    1.5230    0.0000 C   0  0  0  0  0  0  0  0  0  0  0  0
    3.5029    2.9953    0.0000 O   0  0  0  0  0  0  0  0  0  0  0  0
    5.2798    2.0307    0.0000 C   0  0  0  0  0  0  0  0  0  0  0  0
  1  2  1  0  0  0  0 
  1  3  1  0  0  0  0 
  2  4  1  0  0  0  0 
  3  5  2  0  0  0  0 
  4  6  2  0  0  0  0 
  4  7  1  0  0  0  0 
  5  8  1  0  0  0  0 
  5  9  1  0  0  0  0 
  6 10  1  0  0  0  0 
 10 11  1  0  0  0  0 
 11 12  1  0  0  0  0 
 12 13  1  0  0  0  0 
 12 14  2  0  0  0  0 
 13 15  1  0  0  0  0 
M  END
> <Name>
2,6-Octadien-1-ol, 3,7-dimethyl-, propanoate, (2

> <Source>
NIST2DMolFile

> <Tox>
253

> <CAS>
105-90-8

$$$$

  CDK

 11 10  0  0  0  0  0  0  0  0999 V2000
    2.6651   -4.6056    0.0000 C   0  0  0  0  0  0  0  0  0  0  0  0
    4.0007   -4.6056    0.0000 C   0  0  0  0  0  0  0  0  0  0  0  0
    1.9884   -5.7615    0.0000 O   0  0  0  0  0  0  0  0  0  0  0  0
    4.6535   -3.4497    0.0000 C   0  0  0  0  0  0  0  0  0  0  0  0
    4.0007   -2.2938    0.0000 C   0  0  0  0  0  0  0  0  0  0  0  0
    5.9891   -3.4497    0.0000 C   0  0  0  0  0  0  0  0  0  0  0  0
    2.6651   -2.2938    0.0000 C   0  0  0  0  0  0  0  0  0  0  0  0
    1.9884   -1.1559    0.0000 C   0  0  0  0  0  0  0  0  0  0  0  0
    0.6588   -1.1559    0.0000 C   0  0  0  0  0  0  0  0  0  0  0  0
    0.0000   -0.0000    0.0000 C   0  0  0  0  0  0  0  0  0  0  0  0
    0.0000   -2.2938    0.0000 C   0  0  0  0  0  0  0  0  0  0  0  0
  1  2  1  0  0  0  0 
  1  3  1  0  0  0  0 
  2  4  2  0  0  0  0 
  4  5  1  0  0  0  0 
  4  6  1  0  0  0  0 
  5  7  1  0  0  0  0 
  7  8  1  0  0  0  0 
  8  9  2  0  0  0  0 
  9 10  1  0  0  0  0 
  9 11  1  0  0  0  0 
M  END
> <Name>
2,6-Octadien-1-ol, 3,7-dimethyl-, (Z)-

> <Source>
DSSTox2DMolFile

> <Tox>
225

> <CAS>
106-25-2

$$$$

  CDK

 11 10  0  0  0  0  0  0  0  0999 V2000
    5.2255    1.7995    1.6863 O   0  0  0  0  0  0  0  0  0  0  0  0
    4.2063    1.0659    1.1572 C   0  0  0  0  0  0  0  0  0  0  0  0
    6.4782    1.8198    0.9992 C   0  0  0  0  0  0  0  0  0  0  0  0
    2.9377    1.1379    1.9787 C   0  0  0  0  0  0  0  0  0  0  0  0
    4.3862    0.4468    0.1266 O   0  0  0  0  0  0  0  0  0  0  0  0
    7.4460    2.6386    1.8491 C   0  0  0  0  0  0  0  0  0  0  0  0
    1.9786    2.1629    1.3905 C   0  0  0  0  0  0  0  0  0  0  0  0
    8.0324    1.8317    3.0090 C   0  0  0  0  0  0  0  0  0  0  0  0
    0.6913    2.2178    2.1821 C   0  0  0  0  0  0  0  0  0  0  0  0
    8.8593    0.6673    2.4877 C   0  0  0  0  0  0  0  0  0  0  0  0
    8.8787    2.7290    3.8964 C   0  0  0  0  0  0  0  0  0  0  0  0
  1  2  1  0  0  0  0 
  1  3  1  0  0  0  0 
  2  4  1  0  0  0  0 
  2  5  2  0  0  0  0 
  3  6  1  0  0  0  0 
  4  7  1  0  0  0  0 
  6  8  1  0  0  0  0 
  7  9  1  0  0  0  0 
  8 10  1  0  0  0  0 
  8 11  1  0  0  0  0 
M  END
> <Name>
ISOPENTYL BUTANOATE

> <Source>
NIST3DMolFile

> <Tox>
179

> <CAS>
106-27-4

$$$$

  CDK

  8  8  0  0  0  0  0  0  0  0999 V2000
    0.0000   -1.1545    0.0000 N   0  0  0  0  0  0  0  0  0  0  0  0
    1.3300   -1.1545    0.0000 C   0  0  0  0  0  0  0  0  0  0  0  0
    1.9950   -0.0000    0.0000 C   0  0  0  0  0  0  0  0  0  0  0  0
    1.9950   -2.3036    0.0000 C   0  0  0  0  0  0  0  0  0  0  0  0
    3.3250   -0.0000    0.0000 C   0  0  0  0  0  0  0  0  0  0  0  0
    3.3250   -2.3036    0.0000 C   0  0  0  0  0  0  0  0  0  0  0  0
    3.9900   -1.1545    0.0000 C   0  0  0  0  0  0  0  0  0  0  0  0
    5.3201   -1.1545    0.0000 Cl  0  0  0  0  0  0  0  0  0  0  0  0
  1  2  1  0  0  0  0 
  2  3  2  0  0  0  0 
  2  4  1  0  0  0  0 
  3  5  1  0  0  0  0 
  6  4  2  0  0  0  0 
  5  7  2  0  0  0  0 
  7  6  1  0  0  0  0 
  7  8  1  0  0  0  0 
M  END
> <Name>
4-CHLOROANILINE

> <Source>
DSSTox2DMolFile

> <Tox>
232

> <CAS>
106-47-8

$$$$

  CDK

  8  8  0  0  0  0  0  0  0  0999 V2000
    1.5127    1.7649    0.0000 C   0  0  0  0  0  0  0  0  0  0  0  0
    1.0085    0.9076    0.0000 C   0  0  0  0  0  0  0  0  0  0  0  0
    2.4708    1.7649    0.0000 C   0  0  0  0  0  0  0  0  0  0  0  0
    1.5127    0.0000    0.0000 C   0  0  0  0  0  0  0  0  0  0  0  0
    0.0000    0.9076    0.0000 Cl  0  0  0  0  0  0  0  0  0  0  0  0
    2.9750    0.8572    0.0000 C   0  0  0  0  0  0  0  0  0  0  0  0
    2.4708    0.0000    0.0000 C   0  0  0  0  0  0  0  0  0  0  0  0
    3.9835    0.9076    0.0000 S   0  0  0  0  0  0  0  0  0  0  0  0
  1  2  2  0  0  0  0 
  3  1  1  0  0  0  0 
  2  4  1  0  0  0  0 
  2  5  1  0  0  0  0 
  6  3  2  0  0  0  0 
  4  7  2  0  0  0  0 
  7  6  1  0  0  0  0 
  6  8  1  0  0  0  0 
M  END
> <Name>
4-CHLOROBENZENETHIOL

> <Source>
NIST2DMolFile

> <Tox>
206

> <CAS>
106-54-7

$$$$

  CDK

  8  8  0  0  0  0  0  0  0  0999 V2000
    0.0000    1.9697    0.0000 C   0  0  0  0  0  0  0  0  0  0  0  0
    0.8812    1.4514    0.0000 N   0  0  0  0  0  0  0  0  0  0  0  0
    1.7624    1.9697    0.0000 C   0  0  0  0  0  0  0  0  0  0  0  0
    0.8812    0.5183    0.0000 C   0  0  0  0  0  0  0  0  0  0  0  0
    2.6435    1.4514    0.0000 C   0  0  0  0  0  0  0  0  0  0  0  0
    1.7624    0.0000    0.0000 C   0  0  0  0  0  0  0  0  0  0  0  0
    2.6435    0.5183    0.0000 N   0  0  0  0  0  0  0  0  0  0  0  0
    3.5247    0.0000    0.0000 C   0  0  0  0  0  0  0  0  0  0  0  0
  1  2  1  0  0  0  0 
  2  3  1  0  0  0  0 
  4  2  1  0  0  0  0 
  3  5  1  0  0  0  0 
  6  4  1  0  0  0  0 
  5  7  1  0  0  0  0 
  7  6  1  0  0  0  0 
  7  8  1  0  0  0  0 
M  END
> <Name>
PIPERAZINE, 1,4-DIMETHYL-

> <Source>
NIST2DMolFile

> <Tox>
131

> <CAS>
106-58-1

$$$$

  CDK

  4  3  0  0  0  0  0  0  0  0999 V2000
    0.0000   -0.0000    0.0000 C   0  0  0  0  0  0  0  0  0  0  0  0
    1.1513   -0.6638    0.0000 C   0  0  0  0  0  0  0  0  0  0  0  0
    2.3061   -0.0000    0.0000 C   0  0  0  0  0  0  0  0  0  0  0  0
    3.4575   -0.6638    0.0000 O   0  0  0  0  0  0  0  0  0  0  0  0
  1  2  2  0  0  0  0 
  2  3  1  0  0  0  0 
  3  4  2  0  0  0  0 
M  END
> <Name>
ACROLEIN

> <Source>
DSSTox2DMolFile

> <Tox>
52.6

> <CAS>
107-02-8

$$$$

  CDK

  4  3  0  0  0  0  0  0  0  0999 V2000
    0.0000   -0.0000    0.0000 N   0  0  0  0  0  0  0  0  0  0  0  0
    1.1513   -0.6638    0.0000 C   0  0  0  0  0  0  0  0  0  0  0  0
    2.3061   -0.0000    0.0000 C   0  0  0  0  0  0  0  0  0  0  0  0
    3.4575   -0.6638    0.0000 C   0  0  0  0  0  0  0  0  0  0  0  0
  1  2  1  0  0  0  0 
  2  3  1  0  0  0  0 
  3  4  2  0  0  0  0 
M  END
> <Name>
ALLYLAMINE

> <Source>
DSSTox2DMolFile

> <Tox>
53.3

> <CAS>
107-11-9

$$$$

  CDK

  4  3  0  0  0  0  0  0  0  0999 V2000
    1.1513   -0.6638    0.0000 C   0  0  0  0  0  0  0  0  0  0  0  0
    2.3061   -0.0000    0.0000 C   0  0  0  0  0  0  0  0  0  0  0  0
    0.0000   -0.0000    0.0000 O   0  0  0  0  0  0  0  0  0  0  0  0
    3.4575   -0.6638    0.0000 O   0  0  0  0  0  0  0  0  0  0  0  0
  1  2  1  0  0  0  0 
  1  3  1  0  0  0  0 
  2  4  1  0  0  0  0 
M  END
> <Name>
ETHYLENE GLYCOL

> <Source>
DSSTox2DMolFile

> <Tox>
197.3

> <CAS>
107-21-1

$$$$

  CDK

  4  3  0  0  0  0  0  0  0  0999 V2000
    0.0000   -0.0000    0.0000 C   0  0  0  0  0  0  0  0  0  0  0  0
    1.1513   -0.6638    0.0000 C   0  0  0  0  0  0  0  0  0  0  0  0
    2.3061   -0.0000    0.0000 N   0  0  0  0  0  0  0  0  0  0  0  0
    3.4575   -0.6638    0.0000 O   0  0  0  0  0  0  0  0  0  0  0  0
  1  2  1  0  0  0  0 
  2  3  2  0  0  0  0 
  3  4  1  0  0  0  0 
M  END
> <Name>
ACETALDEHYDE OXIME

> <Source>
DSSTox2DMolFile

> <Tox>
115

> <CAS>
107-29-9

$$$$

  CDK

  8  7  0  0  0  0  0  0  0  0999 V2000
    3.3874   -0.1694    0.0000 C   0  0  0  0  0  0  0  0  0  0  0  0
    3.2950   -1.2728    0.0000 C   0  0  0  0  0  0  0  0  0  0  0  0
    2.2069   -1.8990    0.0000 C   0  0  0  0  0  0  0  0  0  0  0  0
    5.1324   -0.9803    0.0000 C   0  0  0  0  0  0  0  0  0  0  0  0
    3.9366   -2.3763    0.0000 O   0  0  0  0  0  0  0  0  0  0  0  0
    1.1035   -1.2728    0.0000 C   0  0  0  0  0  0  0  0  0  0  0  0
    0.0000   -1.8990    0.0000 O   0  0  0  0  0  0  0  0  0  0  0  0
    1.1035   -0.0000    0.0000 C   0  0  0  0  0  0  0  0  0  0  0  0
  1  2  1  0  0  0  0 
  2  3  1  0  0  0  0 
  2  4  1  0  0  0  0 
  2  5  1  0  0  0  0 
  3  6  1  0  0  0  0 
  6  7  1  0  0  0  0 
  6  8  1  0  0  0  0 
M  END
> <Name>
2-METHYL-2,4-PENTANEDIOL

> <Source>
DSSTox2DMolFile

> <Tox>
198

> <CAS>
107-41-5

$$$$

  CDK

  9  8  0  0  0  0  0  0  0  0999 V2000
    1.1555   -1.3311    0.0000 Si  0  0  0  0  0  0  0  0  0  0  0  0
    2.3110   -1.9874    0.0000 O   0  0  0  0  0  0  0  0  0  0  0  0
    1.1555   -0.0000    0.0000 C   0  0  0  0  0  0  0  0  0  0  0  0
    0.0000   -1.9874    0.0000 C   0  0  0  0  0  0  0  0  0  0  0  0
    1.1555   -2.6622    0.0000 C   0  0  0  0  0  0  0  0  0  0  0  0
    3.4665   -1.3311    0.0000 Si  0  0  0  0  0  0  0  0  0  0  0  0
    4.6220   -1.9874    0.0000 C   0  0  0  0  0  0  0  0  0  0  0  0
    3.4665   -0.0000    0.0000 C   0  0  0  0  0  0  0  0  0  0  0  0
    3.4665   -2.6622    0.0000 C   0  0  0  0  0  0  0  0  0  0  0  0
  1  2  1  0  0  0  0 
  1  3  1  0  0  0  0 
  1  4  1  0  0  0  0 
  1  5  1  0  0  0  0 
  2  6  1  0  0  0  0 
  6  7  1  0  0  0  0 
  6  8  1  0  0  0  0 
  6  9  1  0  0  0  0 
M  END
> <Name>
HEXAMETHYLDISILOXANE

> <Source>
DSSTox2DMolFile

> <Tox>
99

> <CAS>
107-46-0

$$$$

  CDK

  9  8  0  0  0  0  0  0  0  0999 V2000
    1.7390    0.7161    0.0000 O   0  0  0  0  0  0  0  0  0  0  0  0
    0.9718    1.4321    0.0000 C   0  0  0  0  0  0  0  0  0  0  0  0
    2.6597    0.9718    0.0000 C   0  0  0  0  0  0  0  0  0  0  0  0
    0.0000    1.1764    0.0000 O   0  0  0  0  0  0  0  0  0  0  0  0
    1.2787    2.3528    0.0000 C   0  0  0  0  0  0  0  0  0  0  0  0
    3.6315    1.2275    0.0000 C   0  0  0  0  0  0  0  0  0  0  0  0
    2.9154    0.0000    0.0000 C   0  0  0  0  0  0  0  0  0  0  0  0
    2.4039    1.9947    0.0000 C   0  0  0  0  0  0  0  0  0  0  0  0
    2.1993    2.6085    0.0000 Cl  0  0  0  0  0  0  0  0  0  0  0  0
  1  2  1  0  0  0  0 
  1  3  1  0  0  0  0 
  2  4  2  0  0  0  0 
  2  5  1  0  0  0  0 
  3  6  1  0  0  0  0 
  3  7  1  0  0  0  0 
  3  8  1  0  0  0  0 
  5  9  1  0  0  0  0 
M  END
> <Name>
Acetic acid, chloro-, 1,1-dimethylethyl ester

> <Source>
NIST2DMolFile

> <Tox>
150

> <CAS>
107-59-5

$$$$

  CDK

  6  5  0  0  0  0  0  0  0  0999 V2000
    1.7391    1.4906    0.0000 C   0  0  0  0  0  0  0  0  0  0  0  0
    0.8944    0.9938    0.0000 C   0  0  0  0  0  0  0  0  0  0  0  0
    2.5838    0.9938    0.0000 C   0  0  0  0  0  0  0  0  0  0  0  0
    0.8944    0.0000    0.0000 Br  0  0  0  0  0  0  0  0  0  0  0  0
    0.0000    1.4906    0.0000 C   0  0  0  0  0  0  0  0  0  0  0  0
    3.4781    1.4906    0.0000 Br  0  0  0  0  0  0  0  0  0  0  0  0
  1  2  1  0  0  0  0 
  1  3  1  0  0  0  0 
  2  4  1  0  0  0  0 
  2  5  1  0  0  0  0 
  3  6  1  0  0  0  0 
M  END
> <Name>
Butane, 1,3-dibromo-

> <Source>
NIST2DMolFile

> <Tox>
174

> <CAS>
107-80-2

$$$$

  CDK

  6  5  0  0  0  0  0  0  0  0999 V2000
    1.1691   -1.3355    0.0000 C   0  0  0  0  0  0  0  0  0  0  0  0
    2.3244   -1.9917    0.0000 C   0  0  0  0  0  0  0  0  0  0  0  0
    0.0000   -1.9917    0.0000 O   0  0  0  0  0  0  0  0  0  0  0  0
    3.4797   -1.3355    0.0000 C   0  0  0  0  0  0  0  0  0  0  0  0
    4.6211   -1.9917    0.0000 C   0  0  0  0  0  0  0  0  0  0  0  0
    3.4797   -0.0000    0.0000 O   0  0  0  0  0  0  0  0  0  0  0  0
  1  2  1  0  0  0  0 
  1  3  1  0  0  0  0 
  2  4  1  0  0  0  0 
  4  5  1  0  0  0  0 
  4  6  1  0  0  0  0 
M  END
> <Name>
1,3-BUTANEDIOL

> <Source>
DSSTox2DMolFile

> <Tox>
207.5

> <CAS>
107-88-0

$$$$

  CDK

  6  5  0  0  0  0  0  0  0  0999 V2000
    3.4563   -0.0000    0.0000 O   0  0  0  0  0  0  0  0  0  0  0  0
    3.4563   -1.3318    0.0000 C   0  0  0  0  0  0  0  0  0  0  0  0
    4.6084   -1.9954    0.0000 O   0  0  0  0  0  0  0  0  0  0  0  0
    2.3042   -1.9954    0.0000 C   0  0  0  0  0  0  0  0  0  0  0  0
    1.1521   -1.3318    0.0000 C   0  0  0  0  0  0  0  0  0  0  0  0
    0.0000   -1.9954    0.0000 Cl  0  0  0  0  0  0  0  0  0  0  0  0
  1  2  2  0  0  0  0 
  2  3  1  0  0  0  0 
  2  4  1  0  0  0  0 
  4  5  1  0  0  0  0 
  5  6  1  0  0  0  0 
M  END
> <Name>
3-CHLOROPROPIONIC ACID

> <Source>
DSSTox2DMolFile

> <Tox>
156

> <CAS>
107-94-8

$$$$

  CDK

  6  5  0  0  0  0  0  0  0  0999 V2000
    3.4563   -0.0000    0.0000 O   0  0  0  0  0  0  0  0  0  0  0  0
    3.4563   -1.3318    0.0000 N   0  0  0  0  0  0  0  0  0  0  0  0
    2.3042   -1.9954    0.0000 C   0  0  0  0  0  0  0  0  0  0  0  0
    4.6084   -1.9954    0.0000 O   0  0  0  0  0  0  0  0  0  0  0  0
    1.1521   -1.3318    0.0000 C   0  0  0  0  0  0  0  0  0  0  0  0
    0.0000   -1.9954    0.0000 C   0  0  0  0  0  0  0  0  0  0  0  0
  1  2  2  0  0  0  0 
  2  3  1  0  0  0  0 
  2  4  1  0  0  0  0 
  3  5  1  0  0  0  0 
  5  6  1  0  0  0  0 
M  CHG  1   2   1
M  CHG  1   4  -1
M  END
> <Name>
1-NITROPROPANE

> <Source>
DSSTox2DMolFile

> <Tox>
131.1

> <CAS>
108-03-2

$$$$

  CDK

  7  6  0  0  0  0  0  0  0  0999 V2000
    4.6073   -1.9950    0.0000 C   0  0  0  0  0  0  0  0  0  0  0  0
    3.4555   -1.3315    0.0000 C   0  0  0  0  0  0  0  0  0  0  0  0
    3.4555   -0.0000    0.0000 O   0  0  0  0  0  0  0  0  0  0  0  0
    2.3037   -1.9950    0.0000 C   0  0  0  0  0  0  0  0  0  0  0  0
    1.1518   -1.3315    0.0000 C   0  0  0  0  0  0  0  0  0  0  0  0
    0.0000   -1.9950    0.0000 C   0  0  0  0  0  0  0  0  0  0  0  0
    1.1518   -0.0000    0.0000 C   0  0  0  0  0  0  0  0  0  0  0  0
  1  2  1  0  0  0  0 
  2  3  2  0  0  0  0 
  2  4  1  0  0  0  0 
  4  5  1  0  0  0  0 
  5  6  1  0  0  0  0 
  5  7  1  0  0  0  0 
M  END
> <Name>
4-METHYL-2-PENTANONE

> <Source>
DSSTox2DMolFile

> <Tox>
116.5

> <CAS>
108-10-1

$$$$

  CDK

  7  6  0  0  0  0  0  0  0  0999 V2000
    0.0000   -0.0000    0.0000 C   0  0  0  0  0  0  0  0  0  0  0  0
    1.1545   -0.6604    0.0000 C   0  0  0  0  0  0  0  0  0  0  0  0
    2.3090   -0.0000    0.0000 C   0  0  0  0  0  0  0  0  0  0  0  0
    1.1545   -1.9903    0.0000 O   0  0  0  0  0  0  0  0  0  0  0  0
    3.4635   -0.6604    0.0000 C   0  0  0  0  0  0  0  0  0  0  0  0
    4.6180   -0.0000    0.0000 C   0  0  0  0  0  0  0  0  0  0  0  0
    3.4635   -1.9903    0.0000 C   0  0  0  0  0  0  0  0  0  0  0  0
  1  2  1  0  0  0  0 
  2  3  1  0  0  0  0 
  2  4  1  0  0  0  0 
  3  5  1  0  0  0  0 
  5  6  1  0  0  0  0 
  5  7  1  0  0  0  0 
M  END
> <Name>
4-METHYL-2-PENTANOL

> <Source>
DSSTox2DMolFile

> <Tox>
131.6

> <CAS>
108-11-2

$$$$

  CDK

  7  6  0  0  0  0  0  0  0  0999 V2000
    3.4577   -1.3334    0.0000 C   0  0  0  0  0  0  0  0  0  0  0  0
    3.4577   -0.0000    0.0000 O   0  0  0  0  0  0  0  0  0  0  0  0
    2.2990   -1.9955    0.0000 O   0  0  0  0  0  0  0  0  0  0  0  0
    4.5980   -1.9955    0.0000 Cl  0  0  0  0  0  0  0  0  0  0  0  0
    1.1587   -1.3334    0.0000 C   0  0  0  0  0  0  0  0  0  0  0  0
    0.0000   -2.0093    0.0000 C   0  0  0  0  0  0  0  0  0  0  0  0
    1.1587   -0.0000    0.0000 C   0  0  0  0  0  0  0  0  0  0  0  0
  1  2  2  0  0  0  0 
  1  3  1  0  0  0  0 
  1  4  1  0  0  0  0 
  3  5  1  0  0  0  0 
  5  6  1  0  0  0  0 
  5  7  1  0  0  0  0 
M  END
> <Name>
ISOPROPYL CHLOROFORMATE

> <Source>
DSSTox2DMolFile

> <Tox>
105

> <CAS>
108-23-6

$$$$

  CDK

  8  8  0  0  0  0  0  0  0  0999 V2000
    0.0000   -2.6588    0.0000 Cl  0  0  0  0  0  0  0  0  0  0  0  0
    1.1520   -1.9953    0.0000 C   0  0  0  0  0  0  0  0  0  0  0  0
    1.1520   -0.6635    0.0000 C   0  0  0  0  0  0  0  0  0  0  0  0
    2.3040   -2.6588    0.0000 C   0  0  0  0  0  0  0  0  0  0  0  0
    2.3040   -0.0000    0.0000 C   0  0  0  0  0  0  0  0  0  0  0  0
    3.4560   -1.9953    0.0000 C   0  0  0  0  0  0  0  0  0  0  0  0
    3.4560   -0.6635    0.0000 C   0  0  0  0  0  0  0  0  0  0  0  0
    4.6080   -2.6588    0.0000 O   0  0  0  0  0  0  0  0  0  0  0  0
  1  2  1  0  0  0  0 
  2  3  2  0  0  0  0 
  2  4  1  0  0  0  0 
  3  5  1  0  0  0  0 
  6  4  2  0  0  0  0 
  5  7  2  0  0  0  0 
  7  6  1  0  0  0  0 
  6  8  1  0  0  0  0 
M  END
> <Name>
3-CHLOROPHENOL

> <Source>
DSSTox2DMolFile

> <Tox>
214

> <CAS>
108-43-0

$$$$

  CDK

  8  8  0  0  0  0  0  0  0  0999 V2000
    4.6080   -2.6588    0.0000 O   0  0  0  0  0  0  0  0  0  0  0  0
    3.4560   -1.9953    0.0000 C   0  0  0  0  0  0  0  0  0  0  0  0
    2.3040   -2.6588    0.0000 C   0  0  0  0  0  0  0  0  0  0  0  0
    3.4560   -0.6635    0.0000 C   0  0  0  0  0  0  0  0  0  0  0  0
    1.1520   -1.9953    0.0000 C   0  0  0  0  0  0  0  0  0  0  0  0
    2.3040   -0.0000    0.0000 C   0  0  0  0  0  0  0  0  0  0  0  0
    1.1520   -0.6635    0.0000 C   0  0  0  0  0  0  0  0  0  0  0  0
    0.0000   -2.6588    0.0000 O   0  0  0  0  0  0  0  0  0  0  0  0
  1  2  1  0  0  0  0 
  2  3  2  0  0  0  0 
  2  4  1  0  0  0  0 
  3  5  1  0  0  0  0 
  6  4  2  0  0  0  0 
  5  7  2  0  0  0  0 
  5  8  1  0  0  0  0 
  7  6  1  0  0  0  0 
M  END
> <Name>
RESORCINOL

> <Source>
DSSTox2DMolFile

> <Tox>
280

> <CAS>
108-46-3

$$$$

  CDK

  8  8  0  0  0  0  0  0  0  0999 V2000
   -1.1764    0.2906   -0.0008 C   0  0  0  0  0  0  0  0  0  0  0  0
   -1.2013   -1.1093   -0.0001 C   0  0  0  0  0  0  0  0  0  0  0  0
    0.0001    0.9712   -0.0016 N   0  0  0  0  0  0  0  0  0  0  0  0
   -2.4350    1.0886    0.0009 C   0  0  0  0  0  0  0  0  0  0  0  0
   -0.0002   -1.8091    0.0004 C   0  0  0  0  0  0  0  0  0  0  0  0
    1.1765    0.2905   -0.0009 C   0  0  0  0  0  0  0  0  0  0  0  0
    1.2010   -1.1094    0.0001 C   0  0  0  0  0  0  0  0  0  0  0  0
    2.4353    1.0884    0.0008 C   0  0  0  0  0  0  0  0  0  0  0  0
  1  2  1  0  0  0  0 
  1  3  2  0  0  0  0 
  1  4  1  0  0  0  0 
  2  5  2  0  0  0  0 
  6  3  1  0  0  0  0 
  5  7  1  0  0  0  0 
  7  6  2  0  0  0  0 
  6  8  1  0  0  0  0 
M  END
> <Name>
2,6-LUTIDINE

> <Source>
DougDB3DMolFile

> <Tox>
144.1

> <CAS>
108-48-5

$$$$

  CDK

  9  8  0  0  0  0  0  0  0  0999 V2000
    2.3031   -1.9997    0.0000 C   0  0  0  0  0  0  0  0  0  0  0  0
    3.4546   -1.3308    0.0000 C   0  0  0  0  0  0  0  0  0  0  0  0
    1.1515   -1.3308    0.0000 O   0  0  0  0  0  0  0  0  0  0  0  0
    3.4546   -0.0000    0.0000 C   0  0  0  0  0  0  0  0  0  0  0  0
    4.6062   -1.9997    0.0000 O   0  0  0  0  0  0  0  0  0  0  0  0
    0.0000   -1.9997    0.0000 C   0  0  0  0  0  0  0  0  0  0  0  0
    5.7577   -1.3308    0.0000 C   0  0  0  0  0  0  0  0  0  0  0  0
    5.7577   -0.0000    0.0000 O   0  0  0  0  0  0  0  0  0  0  0  0
    6.8955   -1.9997    0.0000 C   0  0  0  0  0  0  0  0  0  0  0  0
  1  2  1  0  0  0  0 
  1  3  1  0  0  0  0 
  2  4  1  0  0  0  0 
  2  5  1  0  0  0  0 
  3  6  1  0  0  0  0 
  5  7  1  0  0  0  0 
  7  8  2  0  0  0  0 
  7  9  1  0  0  0  0 
M  END
> <Name>
PROPYLENE GLYCOL ME ETHER ACETATE

> <Source>
DSSTox2DMolFile

> <Tox>
145.5

> <CAS>
108-65-6

$$$$

  CDK

  9  9  0  0  0  0  0  0  0  0999 V2000
    2.2915   -1.3344    0.0000 C   0  0  0  0  0  0  0  0  0  0  0  0
    3.4465   -1.9878    0.0000 C   0  0  0  0  0  0  0  0  0  0  0  0
    1.1550   -1.9878    0.0000 C   0  0  0  0  0  0  0  0  0  0  0  0
    2.2915   -0.0000    0.0000 C   0  0  0  0  0  0  0  0  0  0  0  0
    3.4465   -3.3223    0.0000 C   0  0  0  0  0  0  0  0  0  0  0  0
    1.1550   -3.3223    0.0000 C   0  0  0  0  0  0  0  0  0  0  0  0
    2.2915   -3.9941    0.0000 C   0  0  0  0  0  0  0  0  0  0  0  0
    4.6015   -3.9941    0.0000 C   0  0  0  0  0  0  0  0  0  0  0  0
    0.0000   -3.9941    0.0000 C   0  0  0  0  0  0  0  0  0  0  0  0
  1  2  2  0  0  0  0 
  1  3  1  0  0  0  0 
  1  4  1  0  0  0  0 
  2  5  1  0  0  0  0 
  6  3  2  0  0  0  0 
  5  7  2  0  0  0  0 
  5  8  1  0  0  0  0 
  7  6  1  0  0  0  0 
  6  9  1  0  0  0  0 
M  END
> <Name>
1,3,5-TRIMETHYLBENZENE

> <Source>
DSSTox2DMolFile

> <Tox>
164.7

> <CAS>
108-67-8

$$$$

  CDK

  7  7  0  0  0  0  0  0  0  0999 V2000
    1.3292   -1.1496    0.0000 C   0  0  0  0  0  0  0  0  0  0  0  0
    1.9958   -0.0000    0.0000 C   0  0  0  0  0  0  0  0  0  0  0  0
    1.9958   -2.3032    0.0000 C   0  0  0  0  0  0  0  0  0  0  0  0
    0.0000   -1.1496    0.0000 Br  0  0  0  0  0  0  0  0  0  0  0  0
    3.3250   -0.0000    0.0000 C   0  0  0  0  0  0  0  0  0  0  0  0
    3.3250   -2.3032    0.0000 C   0  0  0  0  0  0  0  0  0  0  0  0
    3.9916   -1.1496    0.0000 C   0  0  0  0  0  0  0  0  0  0  0  0
  1  2  2  0  0  0  0 
  1  3  1  0  0  0  0 
  1  4  1  0  0  0  0 
  2  5  1  0  0  0  0 
  6  3  2  0  0  0  0 
  5  7  2  0  0  0  0 
  7  6  1  0  0  0  0 
M  END
> <Name>
BROMOBENZENE

> <Source>
DSSTox2DMolFile

> <Tox>
156

> <CAS>
108-86-1

$$$$

  CDK

  7  7  0  0  0  0  0  0  0  0999 V2000
    1.9958   -0.0000    0.0000 C   0  0  0  0  0  0  0  0  0  0  0  0
    3.3250   -0.0000    0.0000 C   0  0  0  0  0  0  0  0  0  0  0  0
    1.3292   -1.1496    0.0000 C   0  0  0  0  0  0  0  0  0  0  0  0
    3.9916   -1.1496    0.0000 C   0  0  0  0  0  0  0  0  0  0  0  0
    1.9958   -2.3032    0.0000 C   0  0  0  0  0  0  0  0  0  0  0  0
    0.0000   -1.1496    0.0000 O   0  0  0  0  0  0  0  0  0  0  0  0
    3.3250   -2.3032    0.0000 C   0  0  0  0  0  0  0  0  0  0  0  0
  1  2  1  0  0  0  0 
  1  3  1  0  0  0  0 
  2  4  1  0  0  0  0 
  5  3  1  0  0  0  0 
  3  6  1  0  0  0  0 
  4  7  1  0  0  0  0 
  7  5  1  0  0  0  0 
M  END
> <Name>
CYCLOHEXANOL

> <Source>
DSSTox2DMolFile

> <Tox>
160.8

> <CAS>
108-93-0

$$$$

  CDK

 23 22  0  0  0  0  0  0  0  0999 V2000
    0.0000    0.0000    0.0000 C   0  0  0  0  0  0  0  0  0  0  0  0
   -0.2400   -1.4800    0.2600 C   0  0  0  0  0  0  0  0  0  0  0  0
    0.4800    0.5800    1.1800 O   0  0  0  0  0  0  0  0  0  0  0  0
   -0.7400   -2.0800   -0.9200 O   0  0  0  0  0  0  0  0  0  0  0  0
    0.7600    1.9600    1.0400 C   0  0  0  0  0  0  0  0  0  0  0  0
   -1.0000   -3.4600   -0.7800 C   0  0  0  0  0  0  0  0  0  0  0  0
    1.2800    2.4800    2.3800 C   0  0  0  0  0  0  0  0  0  0  0  0
   -1.5200   -3.9600   -2.1200 C   0  0  0  0  0  0  0  0  0  0  0  0
    1.5600    3.8800    2.2800 O   0  0  0  0  0  0  0  0  0  0  0  0
   -1.7800   -5.3400   -1.9800 O   0  0  0  0  0  0  0  0  0  0  0  0
    2.0200    4.3800    3.4200 C   0  0  0  0  0  0  0  0  0  0  0  0
   -2.2800   -5.9400   -3.1800 C   0  0  0  0  0  0  0  0  0  0  0  0
    2.3200    5.8200    3.4000 C   0  0  0  0  0  0  0  0  0  0  0  0
    2.1800    3.7400    4.4200 O   0  0  0  0  0  0  0  0  0  0  0  0
   -2.5200   -7.4200   -2.9000 C   0  0  0  0  0  0  0  0  0  0  0  0
    2.8400    6.5200    4.6200 C   0  0  0  0  0  0  0  0  0  0  0  0
    2.1600    6.5400    2.2600 C   0  0  0  0  0  0  0  0  0  0  0  0
   -3.0200   -8.0400   -4.0800 O   0  0  0  0  0  0  0  0  0  0  0  0
   -3.2600   -9.3400   -3.9000 C   0  0  0  0  0  0  0  0  0  0  0  0
   -3.0800   -9.9200   -2.8600 O   0  0  0  0  0  0  0  0  0  0  0  0
   -3.7800  -10.0600   -5.0800 C   0  0  0  0  0  0  0  0  0  0  0  0
   -4.1000  -11.5200   -5.0000 C   0  0  0  0  0  0  0  0  0  0  0  0
   -3.9600   -9.4000   -6.2400 C   0  0  0  0  0  0  0  0  0  0  0  0
  1  2  1  0  0  0  0 
  1  3  1  0  0  0  0 
  2  4  1  0  0  0  0 
  3  5  1  0  0  0  0 
  4  6  1  0  0  0  0 
  5  7  1  0  0  0  0 
  6  8  1  0  0  0  0 
  7  9  1  0  0  0  0 
  8 10  1  0  0  0  0 
  9 11  1  0  0  0  0 
 10 12  1  0  0  0  0 
 11 13  1  0  0  0  0 
 11 14  2  0  0  0  0 
 12 15  1  0  0  0  0 
 13 16  1  0  0  0  0 
 13 17  2  0  0  0  0 
 15 18  1  0  0  0  0 
 18 19  1  0  0  0  0 
 19 20  2  0  0  0  0 
 19 21  1  0  0  0  0 
 21 22  1  0  0  0  0 
 21 23  2  0  0  0  0 
M  END
> <Name>
TETRAETHYLENEGLYCOL DIMETHACRYLATE

> <Source>
NIH3DMolFile

> <Tox>
220

> <CAS>
109-17-1

$$$$

  CDK

 10  9  0  0  0  0  0  0  0  0999 V2000
    1.0814    0.3824   -0.0014 C   0  0  0  0  0  0  0  0  0  0  0  0
    2.2422   -0.5851   -0.0024 C   0  0  0  0  0  0  0  0  0  0  0  0
    1.0990    1.5973   -0.0011 O   0  0  0  0  0  0  0  0  0  0  0  0
   -0.1221   -0.2648   -0.0011 O   0  0  0  0  0  0  0  0  0  0  0  0
    3.5898    0.1180    0.0038 C   0  0  0  0  0  0  0  0  0  0  0  0
   -1.3166    0.5177   -0.0008 C   0  0  0  0  0  0  0  0  0  0  0  0
    4.7224   -0.8841    0.0010 C   0  0  0  0  0  0  0  0  0  0  0  0
   -2.4781   -0.4721   -0.0015 C   0  0  0  0  0  0  0  0  0  0  0  0
   -3.8032    0.2733    0.0029 C   0  0  0  0  0  0  0  0  0  0  0  0
   -4.9732   -0.6843    0.0008 C   0  0  0  0  0  0  0  0  0  0  0  0
  1  2  1  0  0  0  0 
  1  3  2  0  0  0  0 
  1  4  1  0  0  0  0 
  2  5  1  0  0  0  0 
  4  6  1  0  0  0  0 
  5  7  1  0  0  0  0 
  6  8  1  0  0  0  0 
  8  9  1  0  0  0  0 
  9 10  1  0  0  0  0 
M  END
> <Name>
N-BUTYLBUTYRATE

> <Source>
DougDB3DMolFile

> <Tox>
166

> <CAS>
109-21-7

$$$$

  CDK

  5  4  0  0  0  0  0  0  0  0999 V2000
    0.0000   -0.6707    0.0000 C   0  0  0  0  0  0  0  0  0  0  0  0
    1.1485   -0.0000    0.0000 C   0  0  0  0  0  0  0  0  0  0  0  0
    2.2970   -0.6707    0.0000 C   0  0  0  0  0  0  0  0  0  0  0  0
    3.4455   -0.0000    0.0000 C   0  0  0  0  0  0  0  0  0  0  0  0
    4.5940   -0.6707    0.0000 C   0  0  0  0  0  0  0  0  0  0  0  0
  1  2  2  0  0  0  0 
  2  3  1  0  0  0  0 
  3  4  1  0  0  0  0 
  4  5  1  0  0  0  0 
M  END
> <Name>
1-PENTENE

> <Source>
DSSTox2DMolFile

> <Tox>
29.9

> <CAS>
109-67-1

$$$$

  CDK

  5  4  0  0  0  0  0  0  0  0999 V2000
    0.0000   -0.6638    0.0000 C   0  0  0  0  0  0  0  0  0  0  0  0
    1.1525   -0.0000    0.0000 C   0  0  0  0  0  0  0  0  0  0  0  0
    2.3050   -0.6638    0.0000 C   0  0  0  0  0  0  0  0  0  0  0  0
    3.4575   -0.0000    0.0000 C   0  0  0  0  0  0  0  0  0  0  0  0
    4.6099   -0.6638    0.0000 Cl  0  0  0  0  0  0  0  0  0  0  0  0
  1  2  1  0  0  0  0 
  2  3  1  0  0  0  0 
  3  4  1  0  0  0  0 
  4  5  1  0  0  0  0 
M  END
> <Name>
1-CHLOROBUTANE

> <Source>
DSSTox2DMolFile

> <Tox>
78.6

> <CAS>
109-69-3

$$$$

  CDK

  5  4  0  0  0  0  0  0  0  0999 V2000
    0.0000   -0.6638    0.0000 N   0  0  0  0  0  0  0  0  0  0  0  0
    1.1525   -0.0000    0.0000 C   0  0  0  0  0  0  0  0  0  0  0  0
    2.3050   -0.6638    0.0000 C   0  0  0  0  0  0  0  0  0  0  0  0
    3.4575   -0.0000    0.0000 C   0  0  0  0  0  0  0  0  0  0  0  0
    4.6099   -0.6638    0.0000 N   0  0  0  0  0  0  0  0  0  0  0  0
  1  2  1  0  0  0  0 
  2  3  1  0  0  0  0 
  3  4  1  0  0  0  0 
  4  5  1  0  0  0  0 
M  END
> <Name>
1,3-PROPANEDIAMINE

> <Source>
DSSTox2DMolFile

> <Tox>
139.8

> <CAS>
109-76-2

$$$$

  CDK

  5  4  0  0  0  0  0  0  0  0999 V2000
    1.1557   -0.0000    0.0000 C   0  0  0  0  0  0  0  0  0  0  0  0
    2.3067   -0.6741    0.0000 C   0  0  0  0  0  0  0  0  0  0  0  0
    0.0000   -0.6741    0.0000 S   0  0  0  0  0  0  0  0  0  0  0  0
    3.4486   -0.0000    0.0000 C   0  0  0  0  0  0  0  0  0  0  0  0
    4.5859   -0.6741    0.0000 C   0  0  0  0  0  0  0  0  0  0  0  0
  1  2  1  0  0  0  0 
  1  3  1  0  0  0  0 
  2  4  1  0  0  0  0 
  4  5  1  0  0  0  0 
M  END
> <Name>
BUTANETHIOL

> <Source>
DSSTox2DMolFile

> <Tox>
98.5

> <CAS>
109-79-5

$$$$

  CDK

  5  4  0  0  0  0  0  0  0  0999 V2000
    0.0000    0.0000    0.0000 C   0  0  0  0  0  0  0  0  0  0  0  0
    0.8618    0.5069    0.0000 C   0  0  0  0  0  0  0  0  0  0  0  0
    1.7743    0.0000    0.0000 O   0  0  0  0  0  0  0  0  0  0  0  0
    2.5854    0.5069    0.0000 N   0  0  0  0  0  0  0  0  0  0  0  0
    3.4472    0.0000    0.0000 O   0  0  0  0  0  0  0  0  0  0  0  0
  1  2  1  0  0  0  0 
  2  3  1  0  0  0  0 
  3  4  1  0  0  0  0 
  4  5  2  0  0  0  0 
M  END
> <Name>
ETHYLNITRITE

> <Source>
NIST2DMolFile

> <Tox>
18

> <CAS>
109-95-5

$$$$

  CDK

  5  5  0  0  0  0  0  0  0  0999 V2000
   -0.3674   -1.0692    0.1295 N   0  0  0  0  0  0  0  0  0  0  0  0
   -1.2057   -0.0209   -0.0520 N   0  0  0  0  0  0  0  0  0  0  0  0
    1.0218   -0.7157   -0.1399 C   0  0  0  0  0  0  0  0  0  0  0  0
   -0.4552    1.0292   -0.0444 C   0  0  0  0  0  0  0  0  0  0  0  0
    1.0066    0.7766    0.1069 C   0  0  0  0  0  0  0  0  0  0  0  0
  1  2  1  0  0  0  0 
  1  3  1  0  0  0  0 
  2  4  2  0  0  0  0 
  3  5  1  0  0  0  0 
  5  4  1  0  0  0  0 
M  END
> <Name>
4,5-DIHYDRO-1H-PYRAZOLE

> <Source>
Chemidplus3DMolFile

> <Tox>
144

> <CAS>
109-98-8

$$$$

  CDK

  5  5  0  0  0  0  0  0  0  0999 V2000
    1.7409   -0.0000    0.0000 C   0  0  0  0  0  0  0  0  0  0  0  0
    2.1519   -1.2653    0.0000 C   0  0  0  0  0  0  0  0  0  0  0  0
    0.4110   -0.0000    0.0000 C   0  0  0  0  0  0  0  0  0  0  0  0
    1.0760   -2.0465    0.0000 O   0  0  0  0  0  0  0  0  0  0  0  0
    0.0000   -1.2653    0.0000 C   0  0  0  0  0  0  0  0  0  0  0  0
  1  2  2  0  0  0  0 
  1  3  1  0  0  0  0 
  2  4  1  0  0  0  0 
  5  3  2  0  0  0  0 
  4  5  1  0  0  0  0 
M  END
> <Name>
FURAN

> <Source>
DSSTox2DMolFile

> <Tox>
31.5

> <CAS>
110-00-9

$$$$

  CDK

 10  9  0  0  0  0  0  0  0  0999 V2000
    0.0000   -2.4811    0.0000 C   0  0  0  0  0  0  0  0  0  0  0  0
    1.1513   -1.8248    0.0000 C   0  0  0  0  0  0  0  0  0  0  0  0
    2.3026   -1.1513    0.0000 C   0  0  0  0  0  0  0  0  0  0  0  0
    0.4951   -0.6735    0.0000 O   0  0  0  0  0  0  0  0  0  0  0  0
    1.8248   -2.9761    0.0000 C   0  0  0  0  0  0  0  0  0  0  0  0
    3.4539   -1.8248    0.0000 C   0  0  0  0  0  0  0  0  0  0  0  0
    4.6052   -1.1513    0.0000 C   0  0  0  0  0  0  0  0  0  0  0  0
    5.2615   -2.3026    0.0000 C   0  0  0  0  0  0  0  0  0  0  0  0
    3.9317   -0.0000    0.0000 O   0  0  0  0  0  0  0  0  0  0  0  0
    5.7565   -0.4951    0.0000 C   0  0  0  0  0  0  0  0  0  0  0  0
  1  2  1  0  0  0  0 
  2  3  1  0  0  0  0 
  2  4  1  0  0  0  0 
  2  5  1  0  0  0  0 
  3  6  1  0  0  0  0 
  6  7  1  0  0  0  0 
  7  8  1  0  0  0  0 
  7  9  1  0  0  0  0 
  7 10  1  0  0  0  0 
M  END
> <Name>
2,5-Hexanediol, 2,5-dimethyl-

> <Source>
DSSTox2DMolFile

> <Tox>
214

> <CAS>
110-03-2

$$$$

  CDK

 10  9  0  0  0  0  0  0  0  0999 V2000
    2.3054   -1.1527    0.0000 O   0  0  0  0  0  0  0  0  0  0  0  0
    3.4581   -1.8155    0.0000 O   0  0  0  0  0  0  0  0  0  0  0  0
    1.1527   -1.8155    0.0000 C   0  0  0  0  0  0  0  0  0  0  0  0
    4.6108   -1.1527    0.0000 C   0  0  0  0  0  0  0  0  0  0  0  0
    0.4899   -0.6628    0.0000 C   0  0  0  0  0  0  0  0  0  0  0  0
    0.0000   -2.4783    0.0000 C   0  0  0  0  0  0  0  0  0  0  0  0
    1.8155   -2.9682    0.0000 C   0  0  0  0  0  0  0  0  0  0  0  0
    3.9480   -0.0000    0.0000 C   0  0  0  0  0  0  0  0  0  0  0  0
    5.2736   -2.3054    0.0000 C   0  0  0  0  0  0  0  0  0  0  0  0
    5.7635   -0.4841    0.0000 C   0  0  0  0  0  0  0  0  0  0  0  0
  1  2  1  0  0  0  0 
  1  3  1  0  0  0  0 
  2  4  1  0  0  0  0 
  3  5  1  0  0  0  0 
  3  6  1  0  0  0  0 
  3  7  1  0  0  0  0 
  4  8  1  0  0  0  0 
  4  9  1  0  0  0  0 
  4 10  1  0  0  0  0 
M  END
> <Name>
T-BUTYL-PEROXIDE

> <Source>
DSSTox2DMolFile

> <Tox>
111

> <CAS>
110-05-4

$$$$

  CDK

 14 13  0  0  0  0  0  0  0  0999 V2000
    5.1883    1.6223    1.5100 O   0  0  0  0  0  0  0  0  0  0  0  0
    6.3361    2.3610    1.0908 C   0  0  0  0  0  0  0  0  0  0  0  0
    3.9813    1.9127    0.9395 C   0  0  0  0  0  0  0  0  0  0  0  0
    7.5174    1.7977    1.8769 C   0  0  0  0  0  0  0  0  0  0  0  0
    2.8853    1.0011    1.4459 C   0  0  0  0  0  0  0  0  0  0  0  0
    3.9153    2.8054    0.1179 O   0  0  0  0  0  0  0  0  0  0  0  0
    8.8028    2.4942    1.4613 C   0  0  0  0  0  0  0  0  0  0  0  0
    1.4857    1.4898    1.1067 C   0  0  0  0  0  0  0  0  0  0  0  0
    9.9894    1.9775    2.2589 C   0  0  0  0  0  0  0  0  0  0  0  0
    1.0166    2.5820    2.0421 C   0  0  0  0  0  0  0  0  0  0  0  0
   11.2797    2.6583    1.8323 C   0  0  0  0  0  0  0  0  0  0  0  0
   12.4622    2.1591    2.6466 C   0  0  0  0  0  0  0  0  0  0  0  0
   13.7573    2.8247    2.2094 C   0  0  0  0  0  0  0  0  0  0  0  0
   14.9329    2.3373    3.0257 C   0  0  0  0  0  0  0  0  0  0  0  0
  1  2  1  0  0  0  0 
  1  3  1  0  0  0  0 
  2  4  1  0  0  0  0 
  3  5  1  0  0  0  0 
  3  6  2  0  0  0  0 
  4  7  1  0  0  0  0 
  5  8  1  0  0  0  0 
  7  9  1  0  0  0  0 
  8 10  1  0  0  0  0 
  9 11  1  0  0  0  0 
 11 12  1  0  0  0  0 
 12 13  1  0  0  0  0 
 13 14  1  0  0  0  0 
M  END
> <Name>
Butanoic acid, octyl ester

> <Source>
NIST3DMolFile

> <Tox>
244.1

> <CAS>
110-39-4

$$$$

  CDK

 13 12  0  0  0  0  0  0  0  0999 V2000
    1.6422    2.5056    8.4541 C   0  0  0  0  0  0  0  0  0  0  0  0
    2.2167    1.2149    7.8913 C   0  0  0  0  0  0  0  0  0  0  0  0
    1.8863    2.6374    9.9556 C   0  0  0  0  0  0  0  0  0  0  0  0
    1.9970    1.0762    6.3905 C   0  0  0  0  0  0  0  0  0  0  0  0
    1.0733    1.5962   10.7095 C   0  0  0  0  0  0  0  0  0  0  0  0
    1.4719    4.0149   10.4458 C   0  0  0  0  0  0  0  0  0  0  0  0
    3.0201    1.8179    5.5441 C   0  0  0  0  0  0  0  0  0  0  0  0
    1.5520    0.8687   11.5475 O   0  0  0  0  0  0  0  0  0  0  0  0
    2.7292    3.3039    5.4003 C   0  0  0  0  0  0  0  0  0  0  0  0
    3.6987    3.9685    4.4350 C   0  0  0  0  0  0  0  0  0  0  0  0
    3.4972    3.4656    3.0136 C   0  0  0  0  0  0  0  0  0  0  0  0
    4.5919    3.9577    2.0822 C   0  0  0  0  0  0  0  0  0  0  0  0
    4.3819    3.4605    0.6699 C   0  0  0  0  0  0  0  0  0  0  0  0
  1  2  1  0  0  0  0 
  1  3  1  0  0  0  0 
  2  4  1  0  0  0  0 
  3  5  1  0  0  0  0 
  3  6  1  0  0  0  0 
  4  7  1  0  0  0  0 
  5  8  2  0  0  0  0 
  7  9  1  0  0  0  0 
  9 10  1  0  0  0  0 
 10 11  1  0  0  0  0 
 11 12  1  0  0  0  0 
 12 13  1  0  0  0  0 
M  END
> <Name>
Undecanal, 2-methyl-

> <Source>
NIST3DMolFile

> <Tox>
171

> <CAS>
110-41-8

$$$$

  CDK

  8  7  0  0  0  0  0  0  0  0999 V2000
    0.0000   -1.9974    0.0000 C   0  0  0  0  0  0  0  0  0  0  0  0
    1.1542   -1.3339    0.0000 C   0  0  0  0  0  0  0  0  0  0  0  0
    2.3015   -1.9974    0.0000 C   0  0  0  0  0  0  0  0  0  0  0  0
    3.4558   -1.3339    0.0000 C   0  0  0  0  0  0  0  0  0  0  0  0
    4.6100   -1.9974    0.0000 C   0  0  0  0  0  0  0  0  0  0  0  0
    5.7573   -1.3339    0.0000 C   0  0  0  0  0  0  0  0  0  0  0  0
    5.7573   -0.0000    0.0000 O   0  0  0  0  0  0  0  0  0  0  0  0
    6.9115   -1.9974    0.0000 C   0  0  0  0  0  0  0  0  0  0  0  0
  1  2  1  0  0  0  0 
  2  3  1  0  0  0  0 
  3  4  1  0  0  0  0 
  4  5  1  0  0  0  0 
  5  6  1  0  0  0  0 
  6  7  2  0  0  0  0 
  6  8  1  0  0  0  0 
M  END
> <Name>
2-HEPTANONE

> <Source>
DSSTox2DMolFile

> <Tox>
151

> <CAS>
110-43-0

$$$$

  CDK

  8  7  0  0  0  0  0  0  0  0999 V2000
    3.1434    2.1146    2.2632 C   0  0  0  0  0  0  0  0  0  0  0  0
    3.6748    0.7110    2.5426 C   0  0  0  0  0  0  0  0  0  0  0  0
    1.6163    2.1244    2.1777 C   0  0  0  0  0  0  0  0  0  0  0  0
    5.0967    0.6579    2.4809 O   0  0  0  0  0  0  0  0  0  0  0  0
    1.1317    1.5377    0.8614 C   0  0  0  0  0  0  0  0  0  0  0  0
    1.0960    3.5448    2.3356 C   0  0  0  0  0  0  0  0  0  0  0  0
    5.8501    0.9763    3.5604 C   0  0  0  0  0  0  0  0  0  0  0  0
    5.3452    1.3079    4.6072 O   0  0  0  0  0  0  0  0  0  0  0  0
  1  2  1  0  0  0  0 
  1  3  1  0  0  0  0 
  2  4  1  0  0  0  0 
  3  5  1  0  0  0  0 
  3  6  1  0  0  0  0 
  4  7  1  0  0  0  0 
  7  8  2  0  0  0  0 
M  END
> <Name>
ISOAMYL FORMATE

> <Source>
NIST3DMolFile

> <Tox>
123.5

> <CAS>
110-45-2

$$$$

  CDK

  6  5  0  0  0  0  0  0  0  0999 V2000
    0.0000   -0.6630    0.0000 Cl  0  0  0  0  0  0  0  0  0  0  0  0
    1.1530   -0.0000    0.0000 C   0  0  0  0  0  0  0  0  0  0  0  0
    2.3060   -0.6630    0.0000 C   0  0  0  0  0  0  0  0  0  0  0  0
    3.4590   -0.0000    0.0000 C   0  0  0  0  0  0  0  0  0  0  0  0
    4.6119   -0.6630    0.0000 C   0  0  0  0  0  0  0  0  0  0  0  0
    5.7649   -0.0000    0.0000 Cl  0  0  0  0  0  0  0  0  0  0  0  0
  1  2  1  0  0  0  0 
  2  3  1  0  0  0  0 
  3  4  2  0  0  0  0 
  4  5  1  0  0  0  0 
  5  6  1  0  0  0  0 
M  END
> <Name>
1,4-DICHLORO-2-BUTENE(TRANS)

> <Source>
DSSTox2DMolFile

> <Tox>
155.4

> <CAS>
110-57-6

$$$$

  CDK

  6  5  0  0  0  0  0  0  0  0999 V2000
    0.0000    0.0000    0.0000 C   0  0  0  0  0  0  0  0  0  0  0  0
    0.7400   -0.0200   -1.3400 C   0  0  0  0  0  0  0  0  0  0  0  0
    1.8600    1.0000   -1.4000 C   0  0  0  0  0  0  0  0  0  0  0  0
    3.0000    0.5800   -0.5800 N   0  0  0  0  0  0  0  0  0  0  0  0
    3.0800    0.9200    0.6400 C   0  0  0  0  0  0  0  0  0  0  0  0
    3.1600    1.2400    1.8200 O   0  0  0  0  0  0  0  0  0  0  0  0
  1  2  1  0  0  0  0 
  2  3  1  0  0  0  0 
  3  4  1  0  0  0  0 
  4  5  2  0  0  0  0 
  5  6  2  0  0  0  0 
M  END
> <Name>
Propane, 1-isocyanato-

> <Source>
NIH3DMolFile

> <Tox>
83.5

> <CAS>
110-78-1

$$$$

  CDK

  6  5  0  0  0  0  0  0  0  0999 V2000
   -0.6563    0.7671    0.5578 S   0  0  0  0  0  0  0  0  0  0  0  0
    0.6565   -0.7682    0.5567 S   0  0  0  0  0  0  0  0  0  0  0  0
   -1.9463    0.4972   -0.7061 C   0  0  0  0  0  0  0  0  0  0  0  0
    1.9465   -0.4960   -0.7069 C   0  0  0  0  0  0  0  0  0  0  0  0
   -2.8489   -0.6859   -0.4760 C   0  0  0  0  0  0  0  0  0  0  0  0
    2.8484    0.6872   -0.4751 C   0  0  0  0  0  0  0  0  0  0  0  0
  1  2  1  0  0  0  0 
  1  3  1  0  0  0  0 
  2  4  1  0  0  0  0 
  3  5  1  0  0  0  0 
  4  6  1  0  0  0  0 
M  END
> <Name>
DIETHYL DISULFIDE

> <Source>
DougDB3DMolFile

> <Tox>
154.1

> <CAS>
110-81-6

$$$$

  CDK

  6  6  0  0  0  0  0  0  0  0999 V2000
    2.3036   -1.9950    0.0000 C   0  0  0  0  0  0  0  0  0  0  0  0
    1.1518   -2.6600    0.0000 C   0  0  0  0  0  0  0  0  0  0  0  0
    2.3036   -0.6650    0.0000 N   0  0  0  0  0  0  0  0  0  0  0  0
    0.0000   -1.9950    0.0000 N   0  0  0  0  0  0  0  0  0  0  0  0
    1.1518   -0.0000    0.0000 C   0  0  0  0  0  0  0  0  0  0  0  0
    0.0000   -0.6650    0.0000 C   0  0  0  0  0  0  0  0  0  0  0  0
  1  2  1  0  0  0  0 
  1  3  1  0  0  0  0 
  2  4  1  0  0  0  0 
  5  3  1  0  0  0  0 
  4  6  1  0  0  0  0 
  6  5  1  0  0  0  0 
M  END
> <Name>
PIPERAZINE

> <Source>
DSSTox2DMolFile

> <Tox>
146

> <CAS>
110-85-0

$$$$

  CDK

  6  6  0  0  0  0  0  0  0  0999 V2000
    2.3036   -1.9950    0.0000 N   0  0  0  0  0  0  0  0  0  0  0  0
    1.1518   -2.6600    0.0000 C   0  0  0  0  0  0  0  0  0  0  0  0
    2.3036   -0.6650    0.0000 C   0  0  0  0  0  0  0  0  0  0  0  0
    0.0000   -1.9950    0.0000 C   0  0  0  0  0  0  0  0  0  0  0  0
    1.1518   -0.0000    0.0000 C   0  0  0  0  0  0  0  0  0  0  0  0
    0.0000   -0.6650    0.0000 C   0  0  0  0  0  0  0  0  0  0  0  0
  1  2  2  0  0  0  0 
  1  3  1  0  0  0  0 
  2  4  1  0  0  0  0 
  5  3  2  0  0  0  0 
  4  6  2  0  0  0  0 
  6  5  1  0  0  0  0 
M  END
> <Name>
PYRIDINE

> <Source>
DSSTox2DMolFile

> <Tox>
115.2

> <CAS>
110-86-1

$$$$

  CDK

  6  6  0  0  0  0  0  0  0  0999 V2000
    2.7801    3.3595    1.2202 C   0  0  0  0  0  0  0  0  0  0  0  0
    3.5364    2.1768    1.8075 C   0  0  0  0  0  0  0  0  0  0  0  0
    1.3816    2.9837    0.8872 C   0  0  0  0  0  0  0  0  0  0  0  0
    3.2163    0.9077    1.0278 C   0  0  0  0  0  0  0  0  0  0  0  0
    1.0050    1.7035    0.7714 C   0  0  0  0  0  0  0  0  0  0  0  0
    1.8251    0.6226    0.9360 O   0  0  0  0  0  0  0  0  0  0  0  0
  1  2  1  0  0  0  0 
  3  1  1  0  0  0  0 
  2  4  1  0  0  0  0 
  5  3  2  0  0  0  0 
  4  6  1  0  0  0  0 
  6  5  1  0  0  0  0 
M  END
> <Name>
2H-PYRAN, 3,4-DIHYDRO-

> <Source>
NIST3DMolFile

> <Tox>
86

> <CAS>
110-87-2

$$$$

  CDK

 11 10  0  0  0  0  0  0  0  0999 V2000
    2.2867   -1.3512    0.0000 C   0  0  0  0  0  0  0  0  0  0  0  0
    3.4612   -2.0061    0.0000 C   0  0  0  0  0  0  0  0  0  0  0  0
    1.1433   -2.0061    0.0000 O   0  0  0  0  0  0  0  0  0  0  0  0
    2.2867   -0.0000    0.0000 O   0  0  0  0  0  0  0  0  0  0  0  0
    4.6046   -1.3512    0.0000 C   0  0  0  0  0  0  0  0  0  0  0  0
    0.0000   -1.3512    0.0000 C   0  0  0  0  0  0  0  0  0  0  0  0
    5.7583   -2.0061    0.0000 C   0  0  0  0  0  0  0  0  0  0  0  0
    6.9328   -1.3512    0.0000 C   0  0  0  0  0  0  0  0  0  0  0  0
    8.0762   -2.0061    0.0000 C   0  0  0  0  0  0  0  0  0  0  0  0
    9.2195   -1.3512    0.0000 C   0  0  0  0  0  0  0  0  0  0  0  0
   10.3941   -2.0061    0.0000 C   0  0  0  0  0  0  0  0  0  0  0  0
  1  2  1  0  0  0  0 
  1  3  1  0  0  0  0 
  1  4  2  0  0  0  0 
  2  5  1  0  0  0  0 
  3  6  1  0  0  0  0 
  5  7  1  0  0  0  0 
  7  8  1  0  0  0  0 
  8  9  1  0  0  0  0 
  9 10  1  0  0  0  0 
 10 11  1  0  0  0  0 
M  END
> <Name>
METHYL OCTANOATE

> <Source>
DSSTox2DMolFile

> <Tox>
192.9

> <CAS>
111-11-5

$$$$

  CDK

 11 10  0  0  0  0  0  0  0  0999 V2000
    4.1207    1.7174    1.2484 C   0  0  0  0  0  0  0  0  0  0  0  0
    5.2159    2.1894    1.2690 C   0  0  0  0  0  0  0  0  0  0  0  0
    2.8145    1.1228    1.2316 C   0  0  0  0  0  0  0  0  0  0  0  0
    6.5392    2.7537    1.2929 C   0  0  0  0  0  0  0  0  0  0  0  0
    1.8587    1.9816    0.7529 O   0  0  0  0  0  0  0  0  0  0  0  0
    2.5083    0.0000    1.5802 O   0  0  0  0  0  0  0  0  0  0  0  0
    6.4957    4.2756    1.3789 C   0  0  0  0  0  0  0  0  0  0  0  0
    0.5254    1.5241    0.6828 C   0  0  0  0  0  0  0  0  0  0  0  0
    7.9005    4.8553    1.4077 C   0  0  0  0  0  0  0  0  0  0  0  0
    7.8694    6.3733    1.4879 C   0  0  0  0  0  0  0  0  0  0  0  0
    9.2649    6.9552    1.4885 C   0  0  0  0  0  0  0  0  0  0  0  0
  1  2  3  0  0  0  0 
  1  3  1  0  0  0  0 
  2  4  1  0  0  0  0 
  3  5  1  0  0  0  0 
  3  6  2  0  0  0  0 
  4  7  1  0  0  0  0 
  5  8  1  0  0  0  0 
  7  9  1  0  0  0  0 
  9 10  1  0  0  0  0 
 10 11  1  0  0  0  0 
M  END
> <Name>
Methyl heptine carbonate

> <Source>
NIST3DMolFile

> <Tox>
218.5

> <CAS>
111-12-6

$$$$

  CDK

 11 10  0  0  0  0  0  0  0  0999 V2000
    7.9743   -2.3046    0.0000 O   0  0  0  0  0  0  0  0  0  0  0  0
    6.6426   -2.3046    0.0000 C   0  0  0  0  0  0  0  0  0  0  0  0
    5.9808   -3.4529    0.0000 C   0  0  0  0  0  0  0  0  0  0  0  0
    5.9808   -1.1483    0.0000 O   0  0  0  0  0  0  0  0  0  0  0  0
    4.6490   -3.4529    0.0000 C   0  0  0  0  0  0  0  0  0  0  0  0
    3.9872   -2.3046    0.0000 C   0  0  0  0  0  0  0  0  0  0  0  0
    2.6555   -2.3046    0.0000 C   0  0  0  0  0  0  0  0  0  0  0  0
    1.9936   -1.1483    0.0000 C   0  0  0  0  0  0  0  0  0  0  0  0
    0.6619   -1.1483    0.0000 C   0  0  0  0  0  0  0  0  0  0  0  0
    0.0000   -2.3046    0.0000 O   0  0  0  0  0  0  0  0  0  0  0  0
    0.0000   -0.0000    0.0000 O   0  0  0  0  0  0  0  0  0  0  0  0
  1  2  1  0  0  0  0 
  2  3  1  0  0  0  0 
  2  4  2  0  0  0  0 
  3  5  1  0  0  0  0 
  5  6  1  0  0  0  0 
  6  7  1  0  0  0  0 
  7  8  1  0  0  0  0 
  8  9  1  0  0  0  0 
  9 10  1  0  0  0  0 
  9 11  2  0  0  0  0 
M  END
> <Name>
PIMELIC ACID

> <Source>
DSSTox2DMolFile

> <Tox>
342

> <CAS>
111-16-0

$$$$

  CDK

 16 15  0  0  0  0  0  0  0  0999 V2000
   13.8275   -0.0000    0.0000 O   0  0  0  0  0  0  0  0  0  0  0  0
   12.6798   -0.6637    0.0000 C   0  0  0  0  0  0  0  0  0  0  0  0
   12.6798   -1.9912    0.0000 O   0  0  0  0  0  0  0  0  0  0  0  0
   11.5183   -0.0000    0.0000 C   0  0  0  0  0  0  0  0  0  0  0  0
   11.5183   -2.6549    0.0000 C   0  0  0  0  0  0  0  0  0  0  0  0
   10.3706   -1.9912    0.0000 C   0  0  0  0  0  0  0  0  0  0  0  0
    9.2229   -2.6549    0.0000 O   0  0  0  0  0  0  0  0  0  0  0  0
    8.0614   -1.9912    0.0000 C   0  0  0  0  0  0  0  0  0  0  0  0
    6.9138   -2.6549    0.0000 C   0  0  0  0  0  0  0  0  0  0  0  0
    5.7661   -1.9912    0.0000 O   0  0  0  0  0  0  0  0  0  0  0  0
    4.6046   -2.6549    0.0000 C   0  0  0  0  0  0  0  0  0  0  0  0
    3.4569   -1.9912    0.0000 C   0  0  0  0  0  0  0  0  0  0  0  0
    2.3092   -2.6549    0.0000 O   0  0  0  0  0  0  0  0  0  0  0  0
    1.1477   -1.9912    0.0000 C   0  0  0  0  0  0  0  0  0  0  0  0
    1.1477   -0.6637    0.0000 O   0  0  0  0  0  0  0  0  0  0  0  0
    0.0000   -2.6549    0.0000 C   0  0  0  0  0  0  0  0  0  0  0  0
  1  2  2  0  0  0  0 
  2  3  1  0  0  0  0 
  2  4  1  0  0  0  0 
  3  5  1  0  0  0  0 
  5  6  1  0  0  0  0 
  6  7  1  0  0  0  0 
  7  8  1  0  0  0  0 
  8  9  1  0  0  0  0 
  9 10  1  0  0  0  0 
 10 11  1  0  0  0  0 
 11 12  1  0  0  0  0 
 12 13  1  0  0  0  0 
 13 14  1  0  0  0  0 
 14 15  2  0  0  0  0 
 14 16  1  0  0  0  0 
M  END
> <Name>
ETHYLENEBIS(OXYETHYLENE)DIACETATE

> <Source>
DSSTox2DMolFile

> <Tox>
286

> <CAS>
111-21-7

$$$$

  CDK

  7  6  0  0  0  0  0  0  0  0999 V2000
    0.0000   -0.6638    0.0000 Br  0  0  0  0  0  0  0  0  0  0  0  0
    1.1548   -0.0000    0.0000 C   0  0  0  0  0  0  0  0  0  0  0  0
    2.3027   -0.6638    0.0000 C   0  0  0  0  0  0  0  0  0  0  0  0
    3.4575   -0.0000    0.0000 C   0  0  0  0  0  0  0  0  0  0  0  0
    4.6122   -0.6638    0.0000 C   0  0  0  0  0  0  0  0  0  0  0  0
    5.7601   -0.0000    0.0000 C   0  0  0  0  0  0  0  0  0  0  0  0
    6.9149   -0.6638    0.0000 C   0  0  0  0  0  0  0  0  0  0  0  0
  1  2  1  0  0  0  0 
  2  3  1  0  0  0  0 
  3  4  1  0  0  0  0 
  4  5  1  0  0  0  0 
  5  6  1  0  0  0  0 
  6  7  1  0  0  0  0 
M  END
> <Name>
1-BROMOHEXANE

> <Source>
DSSTox2DMolFile

> <Tox>
155.3

> <CAS>
111-25-1

$$$$

  CDK

  7  6  0  0  0  0  0  0  0  0999 V2000
   -1.2459    0.7789    0.0005 O   0  0  0  0  0  0  0  0  0  0  0  0
   -2.5549    0.4024    0.0004 C   0  0  0  0  0  0  0  0  0  0  0  0
   -0.2650   -0.2569   -0.0007 C   0  0  0  0  0  0  0  0  0  0  0  0
   -3.0632   -0.8303   -0.0002 C   0  0  0  0  0  0  0  0  0  0  0  0
    1.0965    0.4310   -0.0009 C   0  0  0  0  0  0  0  0  0  0  0  0
    2.2118   -0.6021    0.0011 C   0  0  0  0  0  0  0  0  0  0  0  0
    3.5724    0.0571   -0.0001 C   0  0  0  0  0  0  0  0  0  0  0  0
  1  2  1  0  0  0  0 
  1  3  1  0  0  0  0 
  2  4  2  0  0  0  0 
  3  5  1  0  0  0  0 
  5  6  1  0  0  0  0 
  6  7  1  0  0  0  0 
M  END
> <Name>
BUTYL VINYL ETHER

> <Source>
DougDB3DMolFile

> <Tox>
94

> <CAS>
111-34-2

$$$$

  CDK

  7  6  0  0  0  0  0  0  0  0999 V2000
    3.4514   -0.6696    0.0000 C   0  0  0  0  0  0  0  0  0  0  0  0
    4.6042   -0.0000    0.0000 C   0  0  0  0  0  0  0  0  0  0  0  0
    2.2987   -0.0000    0.0000 N   0  0  0  0  0  0  0  0  0  0  0  0
    5.7501   -0.6696    0.0000 C   0  0  0  0  0  0  0  0  0  0  0  0
    1.1528   -0.6696    0.0000 C   0  0  0  0  0  0  0  0  0  0  0  0
    6.9029   -0.0000    0.0000 C   0  0  0  0  0  0  0  0  0  0  0  0
    0.0000   -1.3254    0.0000 O   0  0  0  0  0  0  0  0  0  0  0  0
  1  2  1  0  0  0  0 
  1  3  1  0  0  0  0 
  2  4  1  0  0  0  0 
  5  3  2  0  0  0  0 
  4  6  1  0  0  0  0 
  5  7  2  0  0  0  0 
M  END
> <Name>
BUTYL ISOCYANATE

> <Source>
DSSTox2DMolFile

> <Tox>
115

> <CAS>
111-36-4

$$$$

  CDK

  7  6  0  0  0  0  0  0  0  0999 V2000
    0.0000   -0.6638    0.0000 O   0  0  0  0  0  0  0  0  0  0  0  0
    1.1548   -0.0000    0.0000 C   0  0  0  0  0  0  0  0  0  0  0  0
    2.3027   -0.6638    0.0000 C   0  0  0  0  0  0  0  0  0  0  0  0
    3.4575   -0.0000    0.0000 N   0  0  0  0  0  0  0  0  0  0  0  0
    4.6122   -0.6638    0.0000 C   0  0  0  0  0  0  0  0  0  0  0  0
    5.7601   -0.0000    0.0000 C   0  0  0  0  0  0  0  0  0  0  0  0
    6.9149   -0.6638    0.0000 O   0  0  0  0  0  0  0  0  0  0  0  0
  1  2  1  0  0  0  0 
  2  3  1  0  0  0  0 
  3  4  1  0  0  0  0 
  4  5  1  0  0  0  0 
  5  6  1  0  0  0  0 
  6  7  1  0  0  0  0 
M  END
> <Name>
DIETHANOLAMINE

> <Source>
DSSTox2DMolFile

> <Tox>
268.8

> <CAS>
111-42-2

$$$$

  CDK

  7  6  0  0  0  0  0  0  0  0999 V2000
    1.7229    2.4489    4.4972 C   0  0  0  0  0  0  0  0  0  0  0  0
    1.4863    1.4871    3.4909 O   0  0  0  0  0  0  0  0  0  0  0  0
    2.8875    3.3932    4.2003 C   0  0  0  0  0  0  0  0  0  0  0  0
    1.0768    2.0380    2.2439 C   0  0  0  0  0  0  0  0  0  0  0  0
    4.2267    2.6962    4.2450 C   0  0  0  0  0  0  0  0  0  0  0  0
    1.3388    1.0002    1.1568 C   0  0  0  0  0  0  0  0  0  0  0  0
    2.7967    0.9418    0.7591 C   0  0  0  0  0  0  0  0  0  0  0  0
  1  2  1  0  0  0  0 
  1  3  1  0  0  0  0 
  2  4  1  0  0  0  0 
  3  5  1  0  0  0  0 
  4  6  1  0  0  0  0 
  6  7  1  0  0  0  0 
M  END
> <Name>
DI(N-PROPYL) ETHER

> <Source>
NIST3DMolFile

> <Tox>
90

> <CAS>
111-43-3

$$$$

  CDK

  7  6  0  0  0  0  0  0  0  0999 V2000
    0.0000   -0.6638    0.0000 O   0  0  0  0  0  0  0  0  0  0  0  0
    1.1548   -0.0000    0.0000 C   0  0  0  0  0  0  0  0  0  0  0  0
    2.3027   -0.6638    0.0000 C   0  0  0  0  0  0  0  0  0  0  0  0
    3.4575   -0.0000    0.0000 O   0  0  0  0  0  0  0  0  0  0  0  0
    4.6122   -0.6638    0.0000 C   0  0  0  0  0  0  0  0  0  0  0  0
    5.7601   -0.0000    0.0000 C   0  0  0  0  0  0  0  0  0  0  0  0
    6.9149   -0.6638    0.0000 O   0  0  0  0  0  0  0  0  0  0  0  0
  1  2  1  0  0  0  0 
  2  3  1  0  0  0  0 
  3  4  1  0  0  0  0 
  4  5  1  0  0  0  0 
  5  6  1  0  0  0  0 
  6  7  1  0  0  0  0 
M  END
> <Name>
DIETHYLENE GLYCOL

> <Source>
DSSTox2DMolFile

> <Tox>
245.8

> <CAS>
111-46-6

$$$$

  CDK

  7  7  0  0  0  0  0  0  0  0999 V2000
    1.8733   -0.0000    0.0000 N   0  0  0  0  0  0  0  0  0  0  0  0
    2.9044   -0.8572    0.0000 C   0  0  0  0  0  0  0  0  0  0  0  0
    0.6084   -0.2817    0.0000 C   0  0  0  0  0  0  0  0  0  0  0  0
    2.9044   -2.2000    0.0000 C   0  0  0  0  0  0  0  0  0  0  0  0
    0.0000   -1.5136    0.0000 C   0  0  0  0  0  0  0  0  0  0  0  0
    1.8733   -2.9973    0.0000 C   0  0  0  0  0  0  0  0  0  0  0  0
    0.6084   -2.7305    0.0000 C   0  0  0  0  0  0  0  0  0  0  0  0
  1  2  1  0  0  0  0 
  1  3  1  0  0  0  0 
  2  4  1  0  0  0  0 
  5  3  1  0  0  0  0 
  4  6  1  0  0  0  0 
  7  5  1  0  0  0  0 
  6  7  1  0  0  0  0 
M  END
> <Name>
HEXAMETHYLENEIMINE

> <Source>
DSSTox2DMolFile

> <Tox>
138

> <CAS>
111-49-9

$$$$

  CDK

  8  7  0  0  0  0  0  0  0  0999 V2000
    0.0000   -0.6681    0.0000 C   0  0  0  0  0  0  0  0  0  0  0  0
    1.1511   -0.0000    0.0000 C   0  0  0  0  0  0  0  0  0  0  0  0
    2.3023   -0.6681    0.0000 C   0  0  0  0  0  0  0  0  0  0  0  0
    3.4534   -0.0000    0.0000 C   0  0  0  0  0  0  0  0  0  0  0  0
    4.5965   -0.6681    0.0000 C   0  0  0  0  0  0  0  0  0  0  0  0
    5.7477   -0.0000    0.0000 C   0  0  0  0  0  0  0  0  0  0  0  0
    6.8988   -0.6681    0.0000 C   0  0  0  0  0  0  0  0  0  0  0  0
    8.0499   -0.0000    0.0000 C   0  0  0  0  0  0  0  0  0  0  0  0
  1  2  1  0  0  0  0 
  2  3  1  0  0  0  0 
  3  4  1  0  0  0  0 
  4  5  1  0  0  0  0 
  5  6  1  0  0  0  0 
  6  7  1  0  0  0  0 
  7  8  1  0  0  0  0 
M  END
> <Name>
OCTANE

> <Source>
DSSTox2DMolFile

> <Tox>
125.6

> <CAS>
111-65-9

$$$$

  CDK

  8  7  0  0  0  0  0  0  0  0999 V2000
    0.0000   -1.9901    0.0000 N   0  0  0  0  0  0  0  0  0  0  0  0
    1.1521   -1.3294    0.0000 C   0  0  0  0  0  0  0  0  0  0  0  0
    2.3043   -0.6607    0.0000 C   0  0  0  0  0  0  0  0  0  0  0  0
    3.4564   -1.3294    0.0000 C   0  0  0  0  0  0  0  0  0  0  0  0
    4.6005   -0.6607    0.0000 C   0  0  0  0  0  0  0  0  0  0  0  0
    5.7526   -1.3294    0.0000 C   0  0  0  0  0  0  0  0  0  0  0  0
    6.9048   -0.6607    0.0000 C   0  0  0  0  0  0  0  0  0  0  0  0
    8.0569   -0.0000    0.0000 N   0  0  0  0  0  0  0  0  0  0  0  0
  1  2  3  0  0  0  0 
  2  3  1  0  0  0  0 
  3  4  1  0  0  0  0 
  4  5  1  0  0  0  0 
  5  6  1  0  0  0  0 
  6  7  1  0  0  0  0 
  7  8  3  0  0  0  0 
M  END
> <Name>
ADIPONITRILE

> <Source>
DSSTox2DMolFile

> <Tox>
295

> <CAS>
111-69-3

$$$$

  CDK

 14 13  0  0  0  0  0  0  0  0999 V2000
    0.9703    4.4863    1.9649 C   0  0  0  0  0  0  0  0  0  0  0  0
    1.8899    4.1414    1.0717 C   0  0  0  0  0  0  0  0  0  0  0  0
    3.2165    4.8058    0.9724 C   0  0  0  0  0  0  0  0  0  0  0  0
    4.3465    3.7846    0.9388 C   0  0  0  0  0  0  0  0  0  0  0  0
    5.7007    4.4633    1.0617 C   0  0  0  0  0  0  0  0  0  0  0  0
    5.8714    5.1344    2.4170 C   0  0  0  0  0  0  0  0  0  0  0  0
    7.2316    5.8013    2.5463 C   0  0  0  0  0  0  0  0  0  0  0  0
    8.3716    4.7923    2.5148 C   0  0  0  0  0  0  0  0  0  0  0  0
    8.5694    4.1046    3.8564 C   0  0  0  0  0  0  0  0  0  0  0  0
    9.7031    3.0951    3.7846 C   0  0  0  0  0  0  0  0  0  0  0  0
    9.8863    2.3352    5.0773 C   0  0  0  0  0  0  0  0  0  0  0  0
   11.0765    1.6558    5.1166 O   0  0  0  0  0  0  0  0  0  0  0  0
    9.1347    2.2502    6.0274 O   0  0  0  0  0  0  0  0  0  0  0  0
   11.3292    0.7959    6.2079 C   0  0  0  0  0  0  0  0  0  0  0  0
  1  2  2  0  0  0  0 
  2  3  1  0  0  0  0 
  3  4  1  0  0  0  0 
  4  5  1  0  0  0  0 
  5  6  1  0  0  0  0 
  6  7  1  0  0  0  0 
  7  8  1  0  0  0  0 
  8  9  1  0  0  0  0 
 10  9  1  0  0  0  0 
 11 10  1  0  0  0  0 
 12 11  1  0  0  0  0 
 11 13  2  0  0  0  0 
 14 12  1  0  0  0  0 
M  END
> <Name>
10-Undecenoic acid, methyl ester

> <Source>
NIST3DMolFile

> <Tox>
248

> <CAS>
111-81-9

$$$$

  CDK

 15 14  0  0  0  0  0  0  0  0999 V2000
    1.1588   -0.6621    0.0000 C   0  0  0  0  0  0  0  0  0  0  0  0
    2.2899   -0.0000    0.0000 C   0  0  0  0  0  0  0  0  0  0  0  0
    1.1588   -2.0002    0.0000 O   0  0  0  0  0  0  0  0  0  0  0  0
    0.0000   -0.0000    0.0000 O   0  0  0  0  0  0  0  0  0  0  0  0
    3.4349   -0.6621    0.0000 C   0  0  0  0  0  0  0  0  0  0  0  0
    0.0000   -2.6624    0.0000 C   0  0  0  0  0  0  0  0  0  0  0  0
    4.5936   -0.0000    0.0000 C   0  0  0  0  0  0  0  0  0  0  0  0
    5.7386   -0.6621    0.0000 C   0  0  0  0  0  0  0  0  0  0  0  0
    6.8973   -0.0000    0.0000 C   0  0  0  0  0  0  0  0  0  0  0  0
    8.0561   -0.6621    0.0000 C   0  0  0  0  0  0  0  0  0  0  0  0
    9.2011   -0.0000    0.0000 C   0  0  0  0  0  0  0  0  0  0  0  0
   10.3598   -0.6759    0.0000 C   0  0  0  0  0  0  0  0  0  0  0  0
   11.5048   -0.0000    0.0000 C   0  0  0  0  0  0  0  0  0  0  0  0
   12.6359   -0.6759    0.0000 C   0  0  0  0  0  0  0  0  0  0  0  0
   13.7947   -0.0000    0.0000 C   0  0  0  0  0  0  0  0  0  0  0  0
  1  2  1  0  0  0  0 
  1  3  1  0  0  0  0 
  1  4  2  0  0  0  0 
  2  5  1  0  0  0  0 
  3  6  1  0  0  0  0 
  5  7  1  0  0  0  0 
  7  8  1  0  0  0  0 
  8  9  1  0  0  0  0 
  9 10  1  0  0  0  0 
 10 11  1  0  0  0  0 
 11 12  1  0  0  0  0 
 12 13  1  0  0  0  0 
 13 14  1  0  0  0  0 
 14 15  1  0  0  0  0 
M  END
> <Name>
METHYL LAURATE

> <Source>
DSSTox2DMolFile

> <Tox>
267

> <CAS>
111-82-0

$$$$

  CDK

  9  8  0  0  0  0  0  0  0  0999 V2000
    0.0000   -0.6638    0.0000 C   0  0  0  0  0  0  0  0  0  0  0  0
    1.1525   -0.0000    0.0000 C   0  0  0  0  0  0  0  0  0  0  0  0
    2.3050   -0.6638    0.0000 C   0  0  0  0  0  0  0  0  0  0  0  0
    3.4575   -0.0000    0.0000 C   0  0  0  0  0  0  0  0  0  0  0  0
    4.6099   -0.6638    0.0000 C   0  0  0  0  0  0  0  0  0  0  0  0
    5.7624   -0.0000    0.0000 C   0  0  0  0  0  0  0  0  0  0  0  0
    6.9149   -0.6638    0.0000 C   0  0  0  0  0  0  0  0  0  0  0  0
    8.0674   -0.0000    0.0000 C   0  0  0  0  0  0  0  0  0  0  0  0
    9.2199   -0.6638    0.0000 Cl  0  0  0  0  0  0  0  0  0  0  0  0
  1  2  1  0  0  0  0 
  2  3  1  0  0  0  0 
  3  4  1  0  0  0  0 
  4  5  1  0  0  0  0 
  5  6  1  0  0  0  0 
  6  7  1  0  0  0  0 
  7  8  1  0  0  0  0 
  8  9  1  0  0  0  0 
M  END
> <Name>
1-CHLOROOCTANE

> <Source>
DSSTox2DMolFile

> <Tox>
181.5

> <CAS>
111-85-3

$$$$

  CDK

  9  8  0  0  0  0  0  0  0  0999 V2000
    4.6099   -0.6638    0.0000 N   0  0  0  0  0  0  0  0  0  0  0  0
    3.4575   -0.0000    0.0000 C   0  0  0  0  0  0  0  0  0  0  0  0
    5.7624   -0.0000    0.0000 C   0  0  0  0  0  0  0  0  0  0  0  0
    2.3050   -0.6638    0.0000 C   0  0  0  0  0  0  0  0  0  0  0  0
    6.9149   -0.6638    0.0000 C   0  0  0  0  0  0  0  0  0  0  0  0
    1.1525   -0.0000    0.0000 C   0  0  0  0  0  0  0  0  0  0  0  0
    8.0674   -0.0000    0.0000 C   0  0  0  0  0  0  0  0  0  0  0  0
    0.0000   -0.6638    0.0000 C   0  0  0  0  0  0  0  0  0  0  0  0
    9.2199   -0.6638    0.0000 C   0  0  0  0  0  0  0  0  0  0  0  0
  1  2  1  0  0  0  0 
  1  3  1  0  0  0  0 
  2  4  1  0  0  0  0 
  3  5  1  0  0  0  0 
  4  6  1  0  0  0  0 
  5  7  1  0  0  0  0 
  6  8  1  0  0  0  0 
  7  9  1  0  0  0  0 
M  END
> <Name>
DIBUTYLAMINE

> <Source>
DSSTox2DMolFile

> <Tox>
159.6

> <CAS>
111-92-2

$$$$

  CDK

  9  8  0  0  0  0  0  0  0  0999 V2000
    4.6099   -0.6638    0.0000 O   0  0  0  0  0  0  0  0  0  0  0  0
    3.4575   -0.0000    0.0000 C   0  0  0  0  0  0  0  0  0  0  0  0
    5.7624   -0.0000    0.0000 C   0  0  0  0  0  0  0  0  0  0  0  0
    2.3050   -0.6638    0.0000 C   0  0  0  0  0  0  0  0  0  0  0  0
    6.9149   -0.6638    0.0000 C   0  0  0  0  0  0  0  0  0  0  0  0
    1.1525   -0.0000    0.0000 O   0  0  0  0  0  0  0  0  0  0  0  0
    8.0674   -0.0000    0.0000 O   0  0  0  0  0  0  0  0  0  0  0  0
    0.0000   -0.6638    0.0000 C   0  0  0  0  0  0  0  0  0  0  0  0
    9.2199   -0.6638    0.0000 C   0  0  0  0  0  0  0  0  0  0  0  0
  1  2  1  0  0  0  0 
  1  3  1  0  0  0  0 
  2  4  1  0  0  0  0 
  3  5  1  0  0  0  0 
  4  6  1  0  0  0  0 
  5  7  1  0  0  0  0 
  6  8  1  0  0  0  0 
  7  9  1  0  0  0  0 
M  END
> <Name>
2-METHOXYETHYLETHER

> <Source>
DSSTox2DMolFile

> <Tox>
162

> <CAS>
111-96-6

$$$$

  CDK

 14 13  0  0  0  0  0  0  0  0999 V2000
    5.5573    1.7420    1.7619 C   0  0  0  0  0  0  0  0  0  0  0  0
    6.8482    1.2879    1.1001 C   0  0  0  0  0  0  0  0  0  0  0  0
    4.3572    1.1045    1.0681 C   0  0  0  0  0  0  0  0  0  0  0  0
    8.0590    1.9222    1.7645 C   0  0  0  0  0  0  0  0  0  0  0  0
    3.1972    1.5868    1.7479 O   0  0  0  0  0  0  0  0  0  0  0  0
    9.3522    1.4611    1.1116 C   0  0  0  0  0  0  0  0  0  0  0  0
    1.9737    1.1330    1.3516 C   0  0  0  0  0  0  0  0  0  0  0  0
   10.5612    2.1202    1.7552 C   0  0  0  0  0  0  0  0  0  0  0  0
    0.8452    1.7062    2.1606 C   0  0  0  0  0  0  0  0  0  0  0  0
    1.8984    0.3429    0.4306 O   0  0  0  0  0  0  0  0  0  0  0  0
   11.8554    1.6476    1.1132 C   0  0  0  0  0  0  0  0  0  0  0  0
   13.0627    2.3274    1.7382 C   0  0  0  0  0  0  0  0  0  0  0  0
   14.3596    1.8440    1.1094 C   0  0  0  0  0  0  0  0  0  0  0  0
   15.5601    2.5273    1.7248 C   0  0  0  0  0  0  0  0  0  0  0  0
  1  2  1  0  0  0  0 
  1  3  1  0  0  0  0 
  2  4  1  0  0  0  0 
  3  5  1  0  0  0  0 
  4  6  1  0  0  0  0 
  5  7  1  0  0  0  0 
  6  8  1  0  0  0  0 
  7  9  1  0  0  0  0 
  7 10  2  0  0  0  0 
  8 11  1  0  0  0  0 
 11 12  1  0  0  0  0 
 12 13  1  0  0  0  0 
 13 14  1  0  0  0  0 
M  END
> <Name>
DECYL ACETATE

> <Source>
NIST3DMolFile

> <Tox>
244

> <CAS>
112-17-4

$$$$

  CDK

 10  9  0  0  0  0  0  0  0  0999 V2000
    4.3586    0.5010    0.0000 C   0  0  0  0  0  0  0  0  0  0  0  0
    3.4568    0.0000    0.0000 C   0  0  0  0  0  0  0  0  0  0  0  0
    5.2103    0.0000    0.0000 C   0  0  0  0  0  0  0  0  0  0  0  0
    2.6051    0.5010    0.0000 C   0  0  0  0  0  0  0  0  0  0  0  0
    6.0619    0.5010    0.0000 O   0  0  0  0  0  0  0  0  0  0  0  0
    1.7535    0.0000    0.0000 C   0  0  0  0  0  0  0  0  0  0  0  0
    6.9637    0.0501    0.0000 C   0  0  0  0  0  0  0  0  0  0  0  0
    0.8517    0.5010    0.0000 C   0  0  0  0  0  0  0  0  0  0  0  0
    7.8154    0.5511    0.0000 O   0  0  0  0  0  0  0  0  0  0  0  0
    0.0000    0.0000    0.0000 C   0  0  0  0  0  0  0  0  0  0  0  0
  1  2  1  0  0  0  0 
  1  3  1  0  0  0  0 
  2  4  1  0  0  0  0 
  3  5  1  0  0  0  0 
  4  6  1  0  0  0  0 
  5  7  1  0  0  0  0 
  6  8  1  0  0  0  0 
  7  9  2  0  0  0  0 
  8 10  1  0  0  0  0 
M  END
> <Name>
Formic acid, heptyl ester

> <Source>
NIST2DMolFile

> <Tox>
178.1

> <CAS>
112-23-2

$$$$

  CDK

 10  9  0  0  0  0  0  0  0  0999 V2000
    1.1365   -0.0000    0.0000 C   0  0  0  0  0  0  0  0  0  0  0  0
    2.2833   -0.6716    0.0000 C   0  0  0  0  0  0  0  0  0  0  0  0
    0.0000   -0.6716    0.0000 O   0  0  0  0  0  0  0  0  0  0  0  0
    3.4405   -0.0000    0.0000 O   0  0  0  0  0  0  0  0  0  0  0  0
    4.5874   -0.6716    0.0000 C   0  0  0  0  0  0  0  0  0  0  0  0
    5.7445   -0.0000    0.0000 C   0  0  0  0  0  0  0  0  0  0  0  0
    6.8914   -0.6716    0.0000 C   0  0  0  0  0  0  0  0  0  0  0  0
    8.0485   -0.0000    0.0000 C   0  0  0  0  0  0  0  0  0  0  0  0
    9.1954   -0.6716    0.0000 C   0  0  0  0  0  0  0  0  0  0  0  0
   10.3319   -0.0000    0.0000 C   0  0  0  0  0  0  0  0  0  0  0  0
  1  2  1  0  0  0  0 
  1  3  1  0  0  0  0 
  2  4  1  0  0  0  0 
  4  5  1  0  0  0  0 
  5  6  1  0  0  0  0 
  6  7  1  0  0  0  0 
  7  8  1  0  0  0  0 
  8  9  1  0  0  0  0 
  9 10  1  0  0  0  0 
M  END
> <Name>
ETHANOL, 2-(HEXYLOXY)-

> <Source>
DSSTox2DMolFile

> <Tox>
208

> <CAS>
112-25-4

$$$$

  CDK

 12 11  0  0  0  0  0  0  0  0999 V2000
    0.0000   -0.6699    0.0000 C   0  0  0  0  0  0  0  0  0  0  0  0
    1.1501   -0.0000    0.0000 C   0  0  0  0  0  0  0  0  0  0  0  0
    2.2876   -0.6699    0.0000 C   0  0  0  0  0  0  0  0  0  0  0  0
    3.4378   -0.0000    0.0000 C   0  0  0  0  0  0  0  0  0  0  0  0
    4.5879   -0.6699    0.0000 C   0  0  0  0  0  0  0  0  0  0  0  0
    5.7381   -0.0000    0.0000 C   0  0  0  0  0  0  0  0  0  0  0  0
    6.9008   -0.6699    0.0000 C   0  0  0  0  0  0  0  0  0  0  0  0
    8.0510   -0.0000    0.0000 C   0  0  0  0  0  0  0  0  0  0  0  0
    9.2011   -0.6699    0.0000 C   0  0  0  0  0  0  0  0  0  0  0  0
   10.3512   -0.0000    0.0000 C   0  0  0  0  0  0  0  0  0  0  0  0
   11.4887   -0.6699    0.0000 C   0  0  0  0  0  0  0  0  0  0  0  0
   12.6389   -0.0000    0.0000 C   0  0  0  0  0  0  0  0  0  0  0  0
  1  2  2  0  0  0  0 
  2  3  1  0  0  0  0 
  3  4  1  0  0  0  0 
  4  5  1  0  0  0  0 
  5  6  1  0  0  0  0 
  6  7  1  0  0  0  0 
  7  8  1  0  0  0  0 
  8  9  1  0  0  0  0 
  9 10  1  0  0  0  0 
 10 11  1  0  0  0  0 
 11 12  1  0  0  0  0 
M  END
> <Name>
N-DODECENE

> <Source>
DSSTox2DMolFile

> <Tox>
213.8

> <CAS>
112-41-4

$$$$

  CDK

 12 11  0  0  0  0  0  0  0  0999 V2000
    5.6351    4.8844    1.0243 C   0  0  0  0  0  0  0  0  0  0  0  0
    4.4176    5.0549    1.9202 C   0  0  0  0  0  0  0  0  0  0  0  0
    6.0961    3.4351    0.9797 C   0  0  0  0  0  0  0  0  0  0  0  0
    4.0695    6.5197    2.1202 C   0  0  0  0  0  0  0  0  0  0  0  0
    6.6098    2.9717    2.3355 C   0  0  0  0  0  0  0  0  0  0  0  0
    2.8277    6.6776    2.9833 C   0  0  0  0  0  0  0  0  0  0  0  0
    6.8890    1.4789    2.3838 C   0  0  0  0  0  0  0  0  0  0  0  0
    2.4733    8.1368    3.2379 C   0  0  0  0  0  0  0  0  0  0  0  0
    8.1772    1.0860    1.6625 C   0  0  0  0  0  0  0  0  0  0  0  0
    1.9006    8.7912    2.0290 C   0  0  0  0  0  0  0  0  0  0  0  0
    9.2668    1.3970    2.5011 O   0  0  0  0  0  0  0  0  0  0  0  0
    0.6794    9.3113    1.9938 C   0  0  0  0  0  0  0  0  0  0  0  0
  1  2  1  0  0  0  0 
  1  3  1  0  0  0  0 
  2  4  1  0  0  0  0 
  3  5  1  0  0  0  0 
  4  6  1  0  0  0  0 
  5  7  1  0  0  0  0 
  6  8  1  0  0  0  0 
  7  9  1  0  0  0  0 
  8 10  1  0  0  0  0 
  9 11  1  0  0  0  0 
 10 12  2  0  0  0  0 
M  END
> <Name>
10-Undecen-1-ol

> <Source>
NIST3DMolFile

> <Tox>
250

> <CAS>
112-43-6

$$$$

  CDK

 12 11  0  0  0  0  0  0  0  0999 V2000
   -0.6600   -1.7029    0.3902 C   0  0  0  0  0  0  0  0  0  0  0  0
    0.6599   -1.7029   -0.3907 C   0  0  0  0  0  0  0  0  0  0  0  0
   -1.5118   -0.7472   -0.2209 O   0  0  0  0  0  0  0  0  0  0  0  0
    1.5133   -0.7498    0.2225 O   0  0  0  0  0  0  0  0  0  0  0  0
   -2.7230   -0.5433    0.4910 C   0  0  0  0  0  0  0  0  0  0  0  0
    2.7210   -0.5398   -0.4936 C   0  0  0  0  0  0  0  0  0  0  0  0
   -3.5363    0.4788   -0.2980 C   0  0  0  0  0  0  0  0  0  0  0  0
    3.5370    0.4774    0.2988 C   0  0  0  0  0  0  0  0  0  0  0  0
   -4.8569    0.7609    0.4000 C   0  0  0  0  0  0  0  0  0  0  0  0
    4.8561    0.7624   -0.4009 C   0  0  0  0  0  0  0  0  0  0  0  0
   -5.6802    1.7715   -0.3660 C   0  0  0  0  0  0  0  0  0  0  0  0
    5.6811    1.7698    0.3677 C   0  0  0  0  0  0  0  0  0  0  0  0
  1  2  1  0  0  0  0 
  1  3  1  0  0  0  0 
  2  4  1  0  0  0  0 
  3  5  1  0  0  0  0 
  4  6  1  0  0  0  0 
  5  7  1  0  0  0  0 
  6  8  1  0  0  0  0 
  7  9  1  0  0  0  0 
  8 10  1  0  0  0  0 
  9 11  1  0  0  0  0 
 10 12  1  0  0  0  0 
M  END
> <Name>
1,2-DIBUTOXYETHANE

> <Source>
DougDB3DMolFile

> <Tox>
203.3

> <CAS>
112-48-1

$$$$

  CDK

 15 14  0  0  0  0  0  0  0  0999 V2000
    1.1949   -0.0000    0.0000 C   0  0  0  0  0  0  0  0  0  0  0  0
    2.3253   -0.6621    0.0000 C   0  0  0  0  0  0  0  0  0  0  0  0
    0.0000   -0.6621    0.0000 O   0  0  0  0  0  0  0  0  0  0  0  0
    3.5041   -0.0000    0.0000 C   0  0  0  0  0  0  0  0  0  0  0  0
    4.6183   -0.6621    0.0000 C   0  0  0  0  0  0  0  0  0  0  0  0
    5.8132   -0.0000    0.0000 C   0  0  0  0  0  0  0  0  0  0  0  0
    6.9435   -0.6621    0.0000 C   0  0  0  0  0  0  0  0  0  0  0  0
    8.0739   -0.0000    0.0000 C   0  0  0  0  0  0  0  0  0  0  0  0
    9.2527   -0.6621    0.0000 C   0  0  0  0  0  0  0  0  0  0  0  0
   10.3991   -0.0000    0.0000 C   0  0  0  0  0  0  0  0  0  0  0  0
   11.5779   -0.6621    0.0000 C   0  0  0  0  0  0  0  0  0  0  0  0
   12.6921   -0.0000    0.0000 C   0  0  0  0  0  0  0  0  0  0  0  0
   13.8870   -0.6621    0.0000 C   0  0  0  0  0  0  0  0  0  0  0  0
   15.0174   -0.0000    0.0000 C   0  0  0  0  0  0  0  0  0  0  0  0
   16.1477   -0.6621    0.0000 C   0  0  0  0  0  0  0  0  0  0  0  0
  1  2  1  0  0  0  0 
  1  3  1  0  0  0  0 
  2  4  1  0  0  0  0 
  4  5  1  0  0  0  0 
  5  6  1  0  0  0  0 
  6  7  1  0  0  0  0 
  7  8  1  0  0  0  0 
  8  9  1  0  0  0  0 
  9 10  1  0  0  0  0 
 10 11  1  0  0  0  0 
 11 12  1  0  0  0  0 
 12 13  1  0  0  0  0 
 13 14  1  0  0  0  0 
 14 15  1  0  0  0  0 
M  END
> <Name>
1-TETRADECANOL

> <Source>
DSSTox2DMolFile

> <Tox>
289

> <CAS>
112-72-1

$$$$

  CDK

  4  3  0  0  0  0  0  0  0  0999 V2000
    1.1459   -1.3361    0.0000 C   0  0  0  0  0  0  0  0  0  0  0  0
    0.0000   -2.0053    0.0000 C   0  0  0  0  0  0  0  0  0  0  0  0
    2.2917   -2.0053    0.0000 C   0  0  0  0  0  0  0  0  0  0  0  0
    1.1459   -0.0000    0.0000 C   0  0  0  0  0  0  0  0  0  0  0  0
  1  2  2  0  0  0  0 
  1  3  1  0  0  0  0 
  1  4  1  0  0  0  0 
M  END
> <Name>
ISOBUTENE

> <Source>
DSSTox2DMolFile

> <Tox>
-6.9

> <CAS>
115-11-7

$$$$

  CDK

  6  5  0  0  0  0  0  0  0  0999 V2000
    1.1503   -1.1537    0.0000 C   0  0  0  0  0  0  0  0  0  0  0  0
    0.4870   -0.0000    0.0000 Cl  0  0  0  0  0  0  0  0  0  0  0  0
    1.8169   -2.3040    0.0000 Cl  0  0  0  0  0  0  0  0  0  0  0  0
    0.0000   -1.8169    0.0000 Cl  0  0  0  0  0  0  0  0  0  0  0  0
    2.3040   -0.4870    0.0000 C   0  0  0  0  0  0  0  0  0  0  0  0
    3.4542   -1.1537    0.0000 O   0  0  0  0  0  0  0  0  0  0  0  0
  1  2  1  0  0  0  0 
  1  3  1  0  0  0  0 
  1  4  1  0  0  0  0 
  1  5  1  0  0  0  0 
  5  6  1  0  0  0  0 
M  END
> <Name>
2,2,2-TRICHLOROETHANOL

> <Source>
DSSTox2DMolFile

> <Tox>
152

> <CAS>
115-20-8

$$$$

  CDK

 16 18  0  0  0  0  0  0  0  0999 V2000
    0.0000    0.0000    0.0000 C   0  0  0  0  0  0  0  0  0  0  0  0
    0.3959    0.7087    0.0000 C   0  0  0  0  0  0  0  0  0  0  0  0
    0.8357    0.4203    0.0000 C   0  0  0  0  0  0  0  0  0  0  0  0
    1.9353    0.6940    0.0000 C   0  0  0  0  0  0  0  0  0  0  0  0
    1.0800    1.1925    0.0000 C   0  0  0  0  0  0  0  0  0  0  0  0
    0.9090    2.0722    0.0000 C   0  0  0  0  0  0  0  0  0  0  0  0
    1.6176    0.0196    0.0000 C   0  0  0  0  0  0  0  0  0  0  0  0
    2.0135    1.4466    0.0000 C   0  0  0  0  0  0  0  0  0  0  0  0
    0.0684    2.5561    0.0000 C   0  0  0  0  0  0  0  0  0  0  0  0
    1.7447    2.5609    0.0000 C   0  0  0  0  0  0  0  0  0  0  0  0
    2.5854    2.0817    0.0000 C   0  0  0  0  0  0  0  0  0  0  0  0
    3.4208    2.5703    0.0000 C   0  0  0  0  0  0  0  0  0  0  0  0
    4.2614    2.0911    0.0000 C   0  0  0  0  0  0  0  0  0  0  0  0
    5.0968    2.5795    0.0000 C   0  0  0  0  0  0  0  0  0  0  0  0
    4.2668    1.1234    0.0000 C   0  0  0  0  0  0  0  0  0  0  0  0
    5.1076    0.6443    0.0000 O   0  0  0  0  0  0  0  0  0  0  0  0
  1  2  1  0  0  0  0 
  3  1  1  0  0  0  0 
  2  4  1  0  0  0  0 
  2  5  1  0  0  0  0 
  6  3  1  0  0  0  0 
  7  3  1  0  0  0  0 
  5  4  1  0  0  0  0 
  4  7  1  0  0  0  0 
  5  8  1  6  0  0  0 
  6  5  1  0  0  0  0 
  6  9  1  0  0  0  0 
  6 10  1  0  0  0  0 
 10 11  1  0  0  0  0 
 11 12  1  0  0  0  0 
 12 13  2  0  0  0  0 
 13 14  1  0  0  0  0 
 13 15  1  0  0  0  0 
 15 16  1  0  0  0  0 
M  END
> <Name>
alpha-Santalol

> <Source>
NIST2DMolFile

> <Tox>
301.5

> <CAS>
115-71-9

$$$$

  CDK

 11 12  0  0  0  0  0  0  0  0999 V2000
    0.0000   -2.6606    0.0000 O   0  0  0  0  0  0  0  0  0  0  0  0
    1.1518   -1.9983    0.0000 C   0  0  0  0  0  0  0  0  0  0  0  0
    2.3036   -2.6606    0.0000 O   0  0  0  0  0  0  0  0  0  0  0  0
    1.1518   -0.6680    0.0000 C   0  0  0  0  0  0  0  0  0  0  0  0
    3.4554   -1.9983    0.0000 C   0  0  0  0  0  0  0  0  0  0  0  0
    2.3036   -0.0000    0.0000 C   0  0  0  0  0  0  0  0  0  0  0  0
    3.4554   -0.6680    0.0000 C   0  0  0  0  0  0  0  0  0  0  0  0
    4.6071   -2.6606    0.0000 C   0  0  0  0  0  0  0  0  0  0  0  0
    4.6071   -0.0000    0.0000 C   0  0  0  0  0  0  0  0  0  0  0  0
    5.7589   -1.9983    0.0000 C   0  0  0  0  0  0  0  0  0  0  0  0
    5.7589   -0.6680    0.0000 C   0  0  0  0  0  0  0  0  0  0  0  0
  1  2  2  0  0  0  0 
  2  3  1  0  0  0  0 
  2  4  1  0  0  0  0 
  3  5  1  0  0  0  0 
  6  4  1  0  0  0  0 
  5  7  2  0  0  0  0 
  5  8  1  0  0  0  0 
  7  6  1  0  0  0  0 
  7  9  1  0  0  0  0 
 10  8  2  0  0  0  0 
  9 11  2  0  0  0  0 
 11 10  1  0  0  0  0 
M  END
> <Name>
2H-1-Benzopyran-2-one, 3,4-dihydro-

> <Source>
DSSTox2DMolFile

> <Tox>
272

> <CAS>
119-84-6

$$$$

  CDK

 11 12  0  0  0  0  0  0  0  0999 V2000
    1.1507   -2.6606    0.0000 C   0  0  0  0  0  0  0  0  0  0  0  0
    0.0000   -1.9954    0.0000 O   0  0  0  0  0  0  0  0  0  0  0  0
    2.3014   -1.9954    0.0000 C   0  0  0  0  0  0  0  0  0  0  0  0
    2.3014   -0.6651    0.0000 C   0  0  0  0  0  0  0  0  0  0  0  0
    3.4521   -2.6606    0.0000 C   0  0  0  0  0  0  0  0  0  0  0  0
    3.4521   -0.0000    0.0000 C   0  0  0  0  0  0  0  0  0  0  0  0
    4.6028   -1.9954    0.0000 C   0  0  0  0  0  0  0  0  0  0  0  0
    4.6028   -0.6651    0.0000 C   0  0  0  0  0  0  0  0  0  0  0  0
    5.8665   -2.4078    0.0000 O   0  0  0  0  0  0  0  0  0  0  0  0
    5.8665   -0.2528    0.0000 O   0  0  0  0  0  0  0  0  0  0  0  0
    6.6514   -1.3303    0.0000 C   0  0  0  0  0  0  0  0  0  0  0  0
  1  2  2  0  0  0  0 
  1  3  1  0  0  0  0 
  3  4  2  0  0  0  0 
  3  5  1  0  0  0  0 
  4  6  1  0  0  0  0 
  7  5  2  0  0  0  0 
  6  8  2  0  0  0  0 
  8  7  1  0  0  0  0 
  9  7  1  0  0  0  0 
  8 10  1  0  0  0  0 
 11  9  1  0  0  0  0 
 10 11  1  0  0  0  0 
M  END
> <Name>
PIPERONAL

> <Source>
DSSTox2DMolFile

> <Tox>
263

> <CAS>
120-57-0

$$$$

  CDK

  9 10  0  0  0  0  0  0  0  0999 V2000
    3.5678   -0.2561    0.0000 N   0  0  0  0  0  0  0  0  0  0  0  0
    4.3404   -1.3195    0.0000 C   0  0  0  0  0  0  0  0  0  0  0  0
    2.3004   -0.6597    0.0000 C   0  0  0  0  0  0  0  0  0  0  0  0
    3.5678   -2.4132    0.0000 C   0  0  0  0  0  0  0  0  0  0  0  0
    2.3004   -2.0096    0.0000 C   0  0  0  0  0  0  0  0  0  0  0  0
    1.1589   -0.0000    0.0000 C   0  0  0  0  0  0  0  0  0  0  0  0
    1.1589   -2.6693    0.0000 C   0  0  0  0  0  0  0  0  0  0  0  0
    0.0000   -0.6771    0.0000 C   0  0  0  0  0  0  0  0  0  0  0  0
    0.0000   -1.9922    0.0000 C   0  0  0  0  0  0  0  0  0  0  0  0
  1  2  1  0  0  0  0 
  1  3  1  0  0  0  0 
  2  4  2  0  0  0  0 
  3  5  2  0  0  0  0 
  3  6  1  0  0  0  0 
  5  4  1  0  0  0  0 
  5  7  1  0  0  0  0 
  6  8  2  0  0  0  0 
  7  9  2  0  0  0  0 
  9  8  1  0  0  0  0 
M  END
> <Name>
INDOLE

> <Source>
DSSTox2DMolFile

> <Tox>
254

> <CAS>
120-72-9

$$$$

  CDK

  8  8  0  0  0  0  0  0  0  0999 V2000
    0.0000   -2.3027    0.0000 O   0  0  0  0  0  0  0  0  0  0  0  0
    1.3289   -2.3027    0.0000 C   0  0  0  0  0  0  0  0  0  0  0  0
    1.9954   -1.1533    0.0000 C   0  0  0  0  0  0  0  0  0  0  0  0
    1.9954   -3.4560    0.0000 C   0  0  0  0  0  0  0  0  0  0  0  0
    3.3243   -1.1533    0.0000 C   0  0  0  0  0  0  0  0  0  0  0  0
    1.3289   -0.0000    0.0000 O   0  0  0  0  0  0  0  0  0  0  0  0
    3.3243   -3.4560    0.0000 C   0  0  0  0  0  0  0  0  0  0  0  0
    3.9907   -2.3027    0.0000 C   0  0  0  0  0  0  0  0  0  0  0  0
  1  2  1  0  0  0  0 
  2  3  2  0  0  0  0 
  2  4  1  0  0  0  0 
  3  5  1  0  0  0  0 
  3  6  1  0  0  0  0 
  7  4  2  0  0  0  0 
  5  8  2  0  0  0  0 
  8  7  1  0  0  0  0 
M  END
> <Name>
CATECHOL

> <Source>
DSSTox2DMolFile

> <Tox>
245.5

> <CAS>
120-80-9

$$$$

  CDK

  9  9  0  0  0  0  0  0  0  0999 V2000
    4.6082   -0.0000    0.0000 Cl  0  0  0  0  0  0  0  0  0  0  0  0
    3.4561   -0.6636    0.0000 C   0  0  0  0  0  0  0  0  0  0  0  0
    3.4561   -1.9953    0.0000 C   0  0  0  0  0  0  0  0  0  0  0  0
    2.3041   -0.0000    0.0000 C   0  0  0  0  0  0  0  0  0  0  0  0
    4.6082   -2.6589    0.0000 Cl  0  0  0  0  0  0  0  0  0  0  0  0
    2.3041   -2.6589    0.0000 C   0  0  0  0  0  0  0  0  0  0  0  0
    1.1520   -0.6636    0.0000 C   0  0  0  0  0  0  0  0  0  0  0  0
    1.1520   -1.9953    0.0000 C   0  0  0  0  0  0  0  0  0  0  0  0
    0.0000   -2.6589    0.0000 Cl  0  0  0  0  0  0  0  0  0  0  0  0
  1  2  1  0  0  0  0 
  2  3  2  0  0  0  0 
  2  4  1  0  0  0  0 
  3  5  1  0  0  0  0 
  3  6  1  0  0  0  0 
  7  4  2  0  0  0  0 
  6  8  2  0  0  0  0 
  8  7  1  0  0  0  0 
  8  9  1  0  0  0  0 
M  END
> <Name>
1,2,4-TRICHLOROBENZENE

> <Source>
DSSTox2DMolFile

> <Tox>
213.5

> <CAS>
120-82-1

$$$$

  CDK

  6  6  0  0  0  0  0  0  0  0999 V2000
   -0.7975    0.0301   -0.4160 N   0  0  0  0  0  0  0  0  0  0  0  0
    0.0400   -1.1995   -0.2731 C   0  0  0  0  0  0  0  0  0  0  0  0
    0.0598    1.2226   -0.1336 C   0  0  0  0  0  0  0  0  0  0  0  0
   -2.0511    0.0003    0.3610 C   0  0  0  0  0  0  0  0  0  0  0  0
    1.3958   -0.7805    0.2894 C   0  0  0  0  0  0  0  0  0  0  0  0
    1.4873    0.7287    0.0930 C   0  0  0  0  0  0  0  0  0  0  0  0
  1  2  1  0  0  0  0 
  1  3  1  0  0  0  0 
  1  4  1  0  0  0  0 
  2  5  1  0  0  0  0 
  6  3  1  0  0  0  0 
  5  6  1  0  0  0  0 
M  END
> <Name>
1-METHYL-PYRROLIDINE

> <Source>
DougDB3DMolFile

> <Tox>
81

> <CAS>
120-94-5

$$$$

  CDK

 13 13  0  0  0  0  0  0  0  0999 V2000
    5.7563   -0.0000    0.0000 C   0  0  0  0  0  0  0  0  0  0  0  0
    4.6092   -0.6634    0.0000 C   0  0  0  0  0  0  0  0  0  0  0  0
    4.6092   -1.9902    0.0000 C   0  0  0  0  0  0  0  0  0  0  0  0
    3.4552   -0.0000    0.0000 C   0  0  0  0  0  0  0  0  0  0  0  0
    5.7563   -2.6605    0.0000 N   0  0  0  0  0  0  0  0  0  0  0  0
    3.4552   -2.6605    0.0000 C   0  0  0  0  0  0  0  0  0  0  0  0
    2.3011   -0.6634    0.0000 C   0  0  0  0  0  0  0  0  0  0  0  0
    6.9103   -1.9902    0.0000 O   0  0  0  0  0  0  0  0  0  0  0  0
    5.7563   -3.9873    0.0000 O   0  0  0  0  0  0  0  0  0  0  0  0
    2.3011   -1.9902    0.0000 C   0  0  0  0  0  0  0  0  0  0  0  0
    1.1540   -2.6605    0.0000 N   0  0  0  0  0  0  0  0  0  0  0  0
    0.0000   -1.9902    0.0000 O   0  0  0  0  0  0  0  0  0  0  0  0
    1.1540   -3.9873    0.0000 O   0  0  0  0  0  0  0  0  0  0  0  0
  1  2  1  0  0  0  0 
  2  3  2  0  0  0  0 
  2  4  1  0  0  0  0 
  3  5  1  0  0  0  0 
  3  6  1  0  0  0  0 
  7  4  2  0  0  0  0 
  5  8  1  0  0  0  0 
  5  9  2  0  0  0  0 
  6 10  2  0  0  0  0 
 10  7  1  0  0  0  0 
 10 11  1  0  0  0  0 
 11 12  1  0  0  0  0 
 11 13  2  0  0  0  0 
M  CHG  1   5   1
M  CHG  1   8  -1
M  CHG  1  11   1
M  CHG  1  12  -1
M  END
> <Name>
2,4-DINITROTOLUENE

> <Source>
DSSTox2DMolFile

> <Tox>
300

> <CAS>
121-14-2

$$$$

  CDK

 14 14  0  0  0  0  0  0  0  0999 V2000
    0.0000   -1.9902    0.0000 O   0  0  0  0  0  0  0  0  0  0  0  0
    1.1541   -2.6606    0.0000 N   0  0  0  0  0  0  0  0  0  0  0  0
    1.1541   -3.9874    0.0000 O   0  0  0  0  0  0  0  0  0  0  0  0
    2.3012   -1.9902    0.0000 C   0  0  0  0  0  0  0  0  0  0  0  0
    2.3012   -0.6634    0.0000 C   0  0  0  0  0  0  0  0  0  0  0  0
    3.4553   -2.6606    0.0000 C   0  0  0  0  0  0  0  0  0  0  0  0
    3.4553   -0.0000    0.0000 C   0  0  0  0  0  0  0  0  0  0  0  0
    1.1541   -0.0000    0.0000 Cl  0  0  0  0  0  0  0  0  0  0  0  0
    4.6093   -1.9902    0.0000 C   0  0  0  0  0  0  0  0  0  0  0  0
    4.6093   -0.6634    0.0000 C   0  0  0  0  0  0  0  0  0  0  0  0
    5.7565   -2.6606    0.0000 C   0  0  0  0  0  0  0  0  0  0  0  0
    6.9105   -3.3240    0.0000 F   0  0  0  0  0  0  0  0  0  0  0  0
    5.0931   -3.8077    0.0000 F   0  0  0  0  0  0  0  0  0  0  0  0
    6.4268   -1.5065    0.0000 F   0  0  0  0  0  0  0  0  0  0  0  0
  1  2  2  0  0  0  0 
  2  3  1  0  0  0  0 
  2  4  1  0  0  0  0 
  4  5  2  0  0  0  0 
  4  6  1  0  0  0  0 
  5  7  1  0  0  0  0 
  5  8  1  0  0  0  0 
  9  6  2  0  0  0  0 
  7 10  2  0  0  0  0 
 10  9  1  0  0  0  0 
  9 11  1  0  0  0  0 
 11 12  1  0  0  0  0 
 11 13  1  0  0  0  0 
 11 14  1  0  0  0  0 
M  CHG  1   2   1
M  CHG  1   3  -1
M  END
> <Name>
Benzene, 1-chloro-2-nitro-4-(trifluoromethyl)-

> <Source>
DSSTox2DMolFile

> <Tox>
222

> <CAS>
121-17-5

$$$$

  CDK

  7  6  0  0  0  0  0  0  0  0999 V2000
    3.9878   -3.4574    0.0000 C   0  0  0  0  0  0  0  0  0  0  0  0
    2.6558   -3.4574    0.0000 C   0  0  0  0  0  0  0  0  0  0  0  0
    1.9939   -2.3049    0.0000 N   0  0  0  0  0  0  0  0  0  0  0  0
    0.6620   -2.3049    0.0000 C   0  0  0  0  0  0  0  0  0  0  0  0
    2.6558   -1.1525    0.0000 C   0  0  0  0  0  0  0  0  0  0  0  0
    0.0000   -3.4574    0.0000 C   0  0  0  0  0  0  0  0  0  0  0  0
    1.9939   -0.0000    0.0000 C   0  0  0  0  0  0  0  0  0  0  0  0
  1  2  1  0  0  0  0 
  2  3  1  0  0  0  0 
  4  3  1  0  0  0  0 
  5  3  1  0  0  0  0 
  6  4  1  0  0  0  0 
  7  5  1  0  0  0  0 
M  END
> <Name>
TRIETHYLAMINE

> <Source>
DSSTox2DMolFile

> <Tox>
89.3

> <CAS>
121-44-8

$$$$

  CDK

 10 10  0  0  0  0  0  0  0  0999 V2000
    1.0936    0.6695    1.9204 C   0  0  0  0  0  0  0  0  0  0  0  0
    1.7784    2.0038    2.0365 C   0  0  0  0  0  0  0  0  0  0  0  0
    1.1642    3.0511    2.0975 O   0  0  0  0  0  0  0  0  0  0  0  0
    3.2722    1.9632    2.0805 C   0  0  0  0  0  0  0  0  0  0  0  0
    3.9735    1.3937    1.0210 C   0  0  0  0  0  0  0  0  0  0  0  0
    3.9532    2.5034    3.1717 C   0  0  0  0  0  0  0  0  0  0  0  0
    5.3738    1.3693    1.0720 C   0  0  0  0  0  0  0  0  0  0  0  0
    5.3428    2.4687    3.2108 C   0  0  0  0  0  0  0  0  0  0  0  0
    6.0015    0.7956    0.0000 O   0  0  0  0  0  0  0  0  0  0  0  0
    6.0654    1.9034    2.1674 C   0  0  0  0  0  0  0  0  0  0  0  0
  1  2  1  0  0  0  0 
  2  3  2  0  0  0  0 
  2  4  1  0  0  0  0 
  5  4  2  0  0  0  0 
  4  6  1  0  0  0  0 
  7  5  1  0  0  0  0 
  6  8  2  0  0  0  0 
  7  9  1  0  0  0  0 
 10  7  2  0  0  0  0 
  8 10  1  0  0  0  0 
M  END
> <Name>
M-HYDROXYACETOPHENONE

> <Source>
NIST3DMolFile

> <Tox>
296

> <CAS>
121-71-1

$$$$

  CDK

 11 11  0  0  0  0  0  0  0  0999 V2000
    4.6576   -1.1511    0.0000 C   0  0  0  0  0  0  0  0  0  0  0  0
    5.9884   -1.1511    0.0000 C   0  0  0  0  0  0  0  0  0  0  0  0
    3.9923   -2.3022    0.0000 C   0  0  0  0  0  0  0  0  0  0  0  0
    3.9923   -0.0000    0.0000 C   0  0  0  0  0  0  0  0  0  0  0  0
    6.6538   -0.0000    0.0000 O   0  0  0  0  0  0  0  0  0  0  0  0
    2.6615   -2.3022    0.0000 C   0  0  0  0  0  0  0  0  0  0  0  0
    2.6615   -0.0000    0.0000 C   0  0  0  0  0  0  0  0  0  0  0  0
    1.9961   -1.1511    0.0000 C   0  0  0  0  0  0  0  0  0  0  0  0
    0.6654   -1.1511    0.0000 C   0  0  0  0  0  0  0  0  0  0  0  0
    0.0000   -2.3022    0.0000 C   0  0  0  0  0  0  0  0  0  0  0  0
    0.0000   -0.0000    0.0000 C   0  0  0  0  0  0  0  0  0  0  0  0
  1  2  1  0  0  0  0 
  1  3  2  0  0  0  0 
  1  4  1  0  0  0  0 
  2  5  2  0  0  0  0 
  3  6  1  0  0  0  0 
  7  4  2  0  0  0  0 
  6  8  2  0  0  0  0 
  8  7  1  0  0  0  0 
  8  9  1  0  0  0  0 
  9 10  1  0  0  0  0 
  9 11  1  0  0  0  0 
M  END
> <Name>
Benzaldehyde, 4-(1-methylethyl)-

> <Source>
DSSTox2DMolFile

> <Tox>
235.5

> <CAS>
122-03-2

$$$$

  CDK

 13 14  0  0  0  0  0  0  0  0999 V2000
    1.1539   -2.6602    0.0000 C   0  0  0  0  0  0  0  0  0  0  0  0
    0.0000   -1.9969    0.0000 C   0  0  0  0  0  0  0  0  0  0  0  0
    2.3009   -1.9969    0.0000 C   0  0  0  0  0  0  0  0  0  0  0  0
    0.0000   -0.6633    0.0000 C   0  0  0  0  0  0  0  0  0  0  0  0
    2.3009   -0.6633    0.0000 C   0  0  0  0  0  0  0  0  0  0  0  0
    3.4548   -2.6602    0.0000 N   0  0  0  0  0  0  0  0  0  0  0  0
    1.1539   -0.0000    0.0000 C   0  0  0  0  0  0  0  0  0  0  0  0
    4.6087   -1.9969    0.0000 C   0  0  0  0  0  0  0  0  0  0  0  0
    4.6087   -0.6633    0.0000 C   0  0  0  0  0  0  0  0  0  0  0  0
    5.7557   -2.6602    0.0000 C   0  0  0  0  0  0  0  0  0  0  0  0
    5.7557   -0.0000    0.0000 C   0  0  0  0  0  0  0  0  0  0  0  0
    6.9096   -1.9969    0.0000 C   0  0  0  0  0  0  0  0  0  0  0  0
    6.9096   -0.6633    0.0000 C   0  0  0  0  0  0  0  0  0  0  0  0
  1  2  2  0  0  0  0 
  1  3  1  0  0  0  0 
  2  4  1  0  0  0  0 
  5  3  2  0  0  0  0 
  3  6  1  0  0  0  0 
  4  7  2  0  0  0  0 
  7  5  1  0  0  0  0 
  6  8  1  0  0  0  0 
  8  9  2  0  0  0  0 
  8 10  1  0  0  0  0 
  9 11  1  0  0  0  0 
 12 10  2  0  0  0  0 
 11 13  2  0  0  0  0 
 13 12  1  0  0  0  0 
M  END
> <Name>
DIPHENYLAMINE

> <Source>
DSSTox2DMolFile

> <Tox>
302

> <CAS>
122-39-4

$$$$

  CDK

 10  9  0  0  0  0  0  0  0  0999 V2000
    4.8251    3.7963    2.0685 O   0  0  0  0  0  0  0  0  0  0  0  0
    4.2086    2.5414    2.1648 C   0  0  0  0  0  0  0  0  0  0  0  0
    5.6232    4.0167    0.9208 C   0  0  0  0  0  0  0  0  0  0  0  0
    4.9570    1.6400    2.9296 O   0  0  0  0  0  0  0  0  0  0  0  0
    3.0784    2.9914    2.8572 O   0  0  0  0  0  0  0  0  0  0  0  0
    6.9847    3.3498    0.9943 C   0  0  0  0  0  0  0  0  0  0  0  0
    5.4364    2.0594    4.2055 C   0  0  0  0  0  0  0  0  0  0  0  0
    1.9781    2.0891    2.8582 C   0  0  0  0  0  0  0  0  0  0  0  0
    6.2064    0.8864    4.7844 C   0  0  0  0  0  0  0  0  0  0  0  0
    0.8642    2.7465    3.6504 C   0  0  0  0  0  0  0  0  0  0  0  0
  1  2  1  0  0  0  0 
  1  3  1  0  0  0  0 
  2  4  1  0  0  0  0 
  2  5  1  0  0  0  0 
  3  6  1  0  0  0  0 
  4  7  1  0  0  0  0 
  5  8  1  0  0  0  0 
  7  9  1  0  0  0  0 
  8 10  1  0  0  0  0 
M  END
> <Name>
ETHYL ORTHOFORMATE

> <Source>
NIST3DMolFile

> <Tox>
143

> <CAS>
122-51-0

$$$$

  CDK

 11 12  0  0  0  0  0  0  0  0999 V2000
    3.9880   -1.1486    0.0000 O   0  0  0  0  0  0  0  0  0  0  0  0
    2.6611   -1.1486    0.0000 C   0  0  0  0  0  0  0  0  0  0  0  0
    4.6515   -2.3043    0.0000 C   0  0  0  0  0  0  0  0  0  0  0  0
    1.9976   -2.3043    0.0000 C   0  0  0  0  0  0  0  0  0  0  0  0
    1.9976   -0.0000    0.0000 C   0  0  0  0  0  0  0  0  0  0  0  0
    5.9856   -2.3043    0.0000 C   0  0  0  0  0  0  0  0  0  0  0  0
    0.6635   -2.3043    0.0000 C   0  0  0  0  0  0  0  0  0  0  0  0
    0.6635   -0.0000    0.0000 C   0  0  0  0  0  0  0  0  0  0  0  0
    7.1342   -1.6409    0.0000 C   0  0  0  0  0  0  0  0  0  0  0  0
    7.1342   -2.9678    0.0000 O   0  0  0  0  0  0  0  0  0  0  0  0
    0.0000   -1.1486    0.0000 C   0  0  0  0  0  0  0  0  0  0  0  0
  1  2  1  0  0  0  0 
  1  3  1  0  0  0  0 
  2  4  2  0  0  0  0 
  2  5  1  0  0  0  0 
  3  6  1  0  0  0  0 
  4  7  1  0  0  0  0 
  8  5  2  0  0  0  0 
  6  9  1  0  0  0  0 
  6 10  1  0  0  0  0 
  7 11  2  0  0  0  0 
 11  8  1  0  0  0  0 
  9 10  1  0  0  0  0 
M  END
> <Name>
PHENYL GLYDIDYL ETHER

> <Source>
DSSTox2DMolFile

> <Tox>
245

> <CAS>
122-60-1

$$$$

  CDK

 10 10  0  0  0  0  0  0  0  0999 V2000
    2.0883   -0.0031    0.1937 C   0  0  0  0  0  0  0  0  0  0  0  0
    3.4639    0.0098   -0.4096 C   0  0  0  0  0  0  0  0  0  0  0  0
    1.7873   -0.0068    1.3680 O   0  0  0  0  0  0  0  0  0  0  0  0
    1.1033   -0.0087   -0.7653 O   0  0  0  0  0  0  0  0  0  0  0  0
   -0.2311   -0.0037   -0.3538 C   0  0  0  0  0  0  0  0  0  0  0  0
   -0.8955    1.2182   -0.2142 C   0  0  0  0  0  0  0  0  0  0  0  0
   -0.9050   -1.2205   -0.2158 C   0  0  0  0  0  0  0  0  0  0  0  0
   -2.2577    1.2109    0.0644 C   0  0  0  0  0  0  0  0  0  0  0  0
   -2.2672   -1.2028    0.0626 C   0  0  0  0  0  0  0  0  0  0  0  0
   -2.9410    0.0066    0.2022 C   0  0  0  0  0  0  0  0  0  0  0  0
  1  2  1  0  0  0  0 
  1  3  2  0  0  0  0 
  1  4  1  0  0  0  0 
  4  5  1  0  0  0  0 
  5  6  1  0  0  0  0 
  5  7  2  0  0  0  0 
  6  8  2  0  0  0  0 
  9  7  1  0  0  0  0 
  8 10  1  0  0  0  0 
 10  9  2  0  0  0  0 
M  END
> <Name>
PHENYL ACETATE

> <Source>
DougDB3DMolFile

> <Tox>
196

> <CAS>
122-79-2

$$$$

  CDK

 10 10  0  0  0  0  0  0  0  0999 V2000
    1.1518   -2.6606    0.0000 C   0  0  0  0  0  0  0  0  0  0  0  0
    0.0000   -1.9984    0.0000 C   0  0  0  0  0  0  0  0  0  0  0  0
    2.3036   -1.9984    0.0000 C   0  0  0  0  0  0  0  0  0  0  0  0
    0.0000   -0.6680    0.0000 C   0  0  0  0  0  0  0  0  0  0  0  0
    2.3036   -0.6680    0.0000 C   0  0  0  0  0  0  0  0  0  0  0  0
    3.4554   -2.6606    0.0000 O   0  0  0  0  0  0  0  0  0  0  0  0
    1.1518   -0.0000    0.0000 C   0  0  0  0  0  0  0  0  0  0  0  0
    4.6072   -1.9984    0.0000 C   0  0  0  0  0  0  0  0  0  0  0  0
    4.6072   -0.6680    0.0000 C   0  0  0  0  0  0  0  0  0  0  0  0
    5.7590   -0.0000    0.0000 O   0  0  0  0  0  0  0  0  0  0  0  0
  1  2  2  0  0  0  0 
  1  3  1  0  0  0  0 
  2  4  1  0  0  0  0 
  5  3  2  0  0  0  0 
  3  6  1  0  0  0  0 
  4  7  2  0  0  0  0 
  7  5  1  0  0  0  0 
  6  8  1  0  0  0  0 
  8  9  1  0  0  0  0 
  9 10  1  0  0  0  0 
M  END
> <Name>
2-PHENOXYETHANOL

> <Source>
DSSTox2DMolFile

> <Tox>
245

> <CAS>
122-99-6

$$$$

  CDK

 18 18  0  0  0  0  0  0  0  0999 V2000
    2.3086   -0.6619    0.0000 C   0  0  0  0  0  0  0  0  0  0  0  0
    2.3086   -1.9857    0.0000 C   0  0  0  0  0  0  0  0  0  0  0  0
    1.1462   -0.0000    0.0000 C   0  0  0  0  0  0  0  0  0  0  0  0
    3.4710   -0.0000    0.0000 C   0  0  0  0  0  0  0  0  0  0  0  0
    1.1462   -2.6638    0.0000 C   0  0  0  0  0  0  0  0  0  0  0  0
    0.0000   -0.6619    0.0000 C   0  0  0  0  0  0  0  0  0  0  0  0
    4.6173   -0.6619    0.0000 C   0  0  0  0  0  0  0  0  0  0  0  0
    0.0000   -1.9857    0.0000 C   0  0  0  0  0  0  0  0  0  0  0  0
    5.7635   -0.0000    0.0000 C   0  0  0  0  0  0  0  0  0  0  0  0
    6.9259   -0.6619    0.0000 C   0  0  0  0  0  0  0  0  0  0  0  0
    8.0721   -0.0000    0.0000 C   0  0  0  0  0  0  0  0  0  0  0  0
    9.2184   -0.6619    0.0000 C   0  0  0  0  0  0  0  0  0  0  0  0
   10.3807   -0.0000    0.0000 C   0  0  0  0  0  0  0  0  0  0  0  0
   11.5270   -0.6619    0.0000 C   0  0  0  0  0  0  0  0  0  0  0  0
   12.6732   -0.0000    0.0000 C   0  0  0  0  0  0  0  0  0  0  0  0
   13.8356   -0.6619    0.0000 C   0  0  0  0  0  0  0  0  0  0  0  0
   14.9980   -0.0000    0.0000 C   0  0  0  0  0  0  0  0  0  0  0  0
   16.1442   -0.6619    0.0000 C   0  0  0  0  0  0  0  0  0  0  0  0
  1  2  2  0  0  0  0 
  1  3  1  0  0  0  0 
  1  4  1  0  0  0  0 
  2  5  1  0  0  0  0 
  6  3  2  0  0  0  0 
  4  7  1  0  0  0  0 
  5  8  2  0  0  0  0 
  8  6  1  0  0  0  0 
  7  9  1  0  0  0  0 
  9 10  1  0  0  0  0 
 10 11  1  0  0  0  0 
 11 12  1  0  0  0  0 
 12 13  1  0  0  0  0 
 13 14  1  0  0  0  0 
 14 15  1  0  0  0  0 
 15 16  1  0  0  0  0 
 16 17  1  0  0  0  0 
 17 18  1  0  0  0  0 
M  END
> <Name>
DODECYLBENZENE

> <Source>
DSSTox2DMolFile

> <Tox>
328

> <CAS>
123-01-3

$$$$

  CDK

  9  8  0  0  0  0  0  0  0  0999 V2000
    5.2066    1.5019    0.0000 C   0  0  0  0  0  0  0  0  0  0  0  0
    4.3555    2.0025    0.0000 C   0  0  0  0  0  0  0  0  0  0  0  0
    3.5044    1.5019    0.0000 C   0  0  0  0  0  0  0  0  0  0  0  0
    3.5044    0.5006    0.0000 C   0  0  0  0  0  0  0  0  0  0  0  0
    2.6033    2.0025    0.0000 C   0  0  0  0  0  0  0  0  0  0  0  0
    4.3555    0.0000    0.0000 Cl  0  0  0  0  0  0  0  0  0  0  0  0
    1.7522    1.5019    0.0000 C   0  0  0  0  0  0  0  0  0  0  0  0
    0.9011    2.0025    0.0000 C   0  0  0  0  0  0  0  0  0  0  0  0
    0.0000    1.5019    0.0000 C   0  0  0  0  0  0  0  0  0  0  0  0
  1  2  1  0  0  0  0 
  2  3  1  0  0  0  0 
  4  3  1  0  0  0  0 
  3  5  1  0  0  0  0 
  6  4  1  0  0  0  0 
  5  7  1  0  0  0  0 
  7  8  1  0  0  0  0 
  8  9  1  0  0  0  0 
M  END
> <Name>
3-(CHLOROMETHYL)HEPTANE

> <Source>
NIST2DMolFile

> <Tox>
172

> <CAS>
123-04-6

$$$$

  CDK

  7  6  0  0  0  0  0  0  0  0999 V2000
    2.6592   -0.0000    0.0000 C   0  0  0  0  0  0  0  0  0  0  0  0
    1.9979   -1.1550    0.0000 C   0  0  0  0  0  0  0  0  0  0  0  0
    0.6660   -1.1550    0.0000 C   0  0  0  0  0  0  0  0  0  0  0  0
    2.6592   -2.3053    0.0000 C   0  0  0  0  0  0  0  0  0  0  0  0
    0.0000   -2.3053    0.0000 O   0  0  0  0  0  0  0  0  0  0  0  0
    3.9912   -2.3053    0.0000 C   0  0  0  0  0  0  0  0  0  0  0  0
    4.6571   -1.1550    0.0000 C   0  0  0  0  0  0  0  0  0  0  0  0
  1  2  1  0  0  0  0 
  2  3  1  0  0  0  0 
  2  4  1  0  0  0  0 
  3  5  2  0  0  0  0 
  4  6  1  0  0  0  0 
  6  7  1  0  0  0  0 
M  END
> <Name>
2-METHYLPENTALDEHYDE

> <Source>
DSSTox2DMolFile

> <Tox>
117

> <CAS>
123-15-9

$$$$

  CDK

 12 11  0  0  0  0  0  0  0  0999 V2000
   -1.8826    0.4244   -0.0034 C   0  0  0  0  0  0  0  0  0  0  0  0
   -0.6300   -0.4224   -0.0037 C   0  0  0  0  0  0  0  0  0  0  0  0
   -1.9775    1.6364   -0.0082 O   0  0  0  0  0  0  0  0  0  0  0  0
   -3.0147   -0.3358    0.0032 O   0  0  0  0  0  0  0  0  0  0  0  0
    0.6305    0.4255   -0.0081 C   0  0  0  0  0  0  0  0  0  0  0  0
   -4.2817    0.3262    0.0038 C   0  0  0  0  0  0  0  0  0  0  0  0
    1.8823   -0.4225   -0.0053 C   0  0  0  0  0  0  0  0  0  0  0  0
   -5.3349   -0.7648    0.0107 C   0  0  0  0  0  0  0  0  0  0  0  0
    1.9748   -1.6348   -0.0089 O   0  0  0  0  0  0  0  0  0  0  0  0
    3.0157    0.3358    0.0020 O   0  0  0  0  0  0  0  0  0  0  0  0
    4.2816   -0.3284    0.0048 C   0  0  0  0  0  0  0  0  0  0  0  0
    5.3366    0.7609    0.0120 C   0  0  0  0  0  0  0  0  0  0  0  0
  1  2  1  0  0  0  0 
  1  3  2  0  0  0  0 
  1  4  1  0  0  0  0 
  2  5  1  0  0  0  0 
  4  6  1  0  0  0  0 
  5  7  1  0  0  0  0 
  6  8  1  0  0  0  0 
  7  9  2  0  0  0  0 
  7 10  1  0  0  0  0 
 10 11  1  0  0  0  0 
 11 12  1  0  0  0  0 
M  END
> <Name>
DIETHYL SUCCINATE

> <Source>
DougDB3DMolFile

> <Tox>
217.7

> <CAS>
123-25-1

$$$$

  CDK

  4  3  0  0  0  0  0  0  0  0999 V2000
    0.0000   -0.0000    0.0000 C   0  0  0  0  0  0  0  0  0  0  0  0
    1.1513   -0.6638    0.0000 C   0  0  0  0  0  0  0  0  0  0  0  0
    2.3061   -0.0000    0.0000 C   0  0  0  0  0  0  0  0  0  0  0  0
    3.4575   -0.6638    0.0000 O   0  0  0  0  0  0  0  0  0  0  0  0
  1  2  1  0  0  0  0 
  2  3  1  0  0  0  0 
  3  4  2  0  0  0  0 
M  END
> <Name>
PROPIONALDEHYDE

> <Source>
DSSTox2DMolFile

> <Tox>
48

> <CAS>
123-38-6

$$$$

  CDK

  6  5  0  0  0  0  0  0  0  0999 V2000
    2.3042   -1.9954    0.0000 C   0  0  0  0  0  0  0  0  0  0  0  0
    1.1521   -1.3318    0.0000 C   0  0  0  0  0  0  0  0  0  0  0  0
    3.4563   -1.3318    0.0000 C   0  0  0  0  0  0  0  0  0  0  0  0
    0.0000   -1.9954    0.0000 O   0  0  0  0  0  0  0  0  0  0  0  0
    3.4563   -0.0000    0.0000 C   0  0  0  0  0  0  0  0  0  0  0  0
    4.6084   -1.9954    0.0000 C   0  0  0  0  0  0  0  0  0  0  0  0
  1  2  1  0  0  0  0 
  1  3  1  0  0  0  0 
  2  4  1  0  0  0  0 
  3  5  1  0  0  0  0 
  3  6  1  0  0  0  0 
M  END
> <Name>
ISOPENTANOL

> <Source>
DSSTox2DMolFile

> <Tox>
131.1

> <CAS>
123-51-3

$$$$

  CDK

  7  6  0  0  0  0  0  0  0  0999 V2000
    4.6073   -1.9950    0.0000 C   0  0  0  0  0  0  0  0  0  0  0  0
    3.4555   -1.3315    0.0000 C   0  0  0  0  0  0  0  0  0  0  0  0
    3.4555   -0.0000    0.0000 O   0  0  0  0  0  0  0  0  0  0  0  0
    2.3037   -1.9950    0.0000 C   0  0  0  0  0  0  0  0  0  0  0  0
    1.1518   -1.3315    0.0000 C   0  0  0  0  0  0  0  0  0  0  0  0
    1.1518   -0.0000    0.0000 O   0  0  0  0  0  0  0  0  0  0  0  0
    0.0000   -1.9950    0.0000 C   0  0  0  0  0  0  0  0  0  0  0  0
  1  2  1  0  0  0  0 
  2  3  2  0  0  0  0 
  2  4  1  0  0  0  0 
  4  5  1  0  0  0  0 
  5  6  2  0  0  0  0 
  5  7  1  0  0  0  0 
M  END
> <Name>
2,4-PENTANEDIONE

> <Source>
DSSTox2DMolFile

> <Tox>
138

> <CAS>
123-54-6

$$$$

  CDK

  8  7  0  0  0  0  0  0  0  0999 V2000
    1.7491    1.4992    0.0000 C   0  0  0  0  0  0  0  0  0  0  0  0
    2.5986    0.9995    0.0000 C   0  0  0  0  0  0  0  0  0  0  0  0
    0.8495    0.9995    0.0000 N   0  0  0  0  0  0  0  0  0  0  0  0
    3.4482    1.4992    0.0000 N   0  0  0  0  0  0  0  0  0  0  0  0
    0.8495    0.0000    0.0000 C   0  0  0  0  0  0  0  0  0  0  0  0
    0.0000    1.4992    0.0000 C   0  0  0  0  0  0  0  0  0  0  0  0
    4.3477    0.9995    0.0000 C   0  0  0  0  0  0  0  0  0  0  0  0
    5.1972    1.4992    0.0000 C   0  0  0  0  0  0  0  0  0  0  0  0
  1  2  1  0  0  0  0 
  1  3  1  0  0  0  0 
  2  4  1  0  0  0  0 
  3  5  1  0  0  0  0 
  3  6  1  0  0  0  0 
  4  7  1  0  0  0  0 
  7  8  1  0  0  0  0 
M  END
> <Name>
1,2-Ethanediamine, N'-ethyl-N,N-dimethyl-

> <Source>
NIST2DMolFile

> <Tox>
134.5

> <CAS>
123-83-1

$$$$

  CDK

  8  7  0  0  0  0  0  0  0  0999 V2000
    3.9913   -0.0000    0.0000 C   0  0  0  0  0  0  0  0  0  0  0  0
    4.6555   -1.1549    0.0000 C   0  0  0  0  0  0  0  0  0  0  0  0
    5.9839   -1.1549    0.0000 O   0  0  0  0  0  0  0  0  0  0  0  0
    3.9913   -2.3038    0.0000 O   0  0  0  0  0  0  0  0  0  0  0  0
    2.6569   -2.3038    0.0000 C   0  0  0  0  0  0  0  0  0  0  0  0
    1.9926   -1.1549    0.0000 C   0  0  0  0  0  0  0  0  0  0  0  0
    0.6642   -1.1549    0.0000 C   0  0  0  0  0  0  0  0  0  0  0  0
    0.0000   -0.0000    0.0000 C   0  0  0  0  0  0  0  0  0  0  0  0
  1  2  1  0  0  0  0 
  2  3  2  0  0  0  0 
  2  4  1  0  0  0  0 
  4  5  1  0  0  0  0 
  5  6  1  0  0  0  0 
  6  7  1  0  0  0  0 
  7  8  1  0  0  0  0 
M  END
> <Name>
N-BUTYL ACETATE

> <Source>
DSSTox2DMolFile

> <Tox>
126.1

> <CAS>
123-86-4

$$$$

  CDK

  6  6  0  0  0  0  0  0  0  0999 V2000
    1.5041    1.7548    0.0000 C   0  0  0  0  0  0  0  0  0  0  0  0
    0.5014    1.7548    0.0000 C   0  0  0  0  0  0  0  0  0  0  0  0
    1.9553    0.9024    0.0000 N   0  0  0  0  0  0  0  0  0  0  0  0
    0.0000    0.9024    0.0000 S   0  0  0  0  0  0  0  0  0  0  0  0
    1.5041    0.0000    0.0000 C   0  0  0  0  0  0  0  0  0  0  0  0
    0.5014    0.0000    0.0000 C   0  0  0  0  0  0  0  0  0  0  0  0
  1  2  1  0  0  0  0 
  3  1  1  0  0  0  0 
  2  4  1  0  0  0  0 
  5  3  1  0  0  0  0 
  4  6  1  0  0  0  0 
  6  5  1  0  0  0  0 
M  END
> <Name>
THIOMORPHOLINE

> <Source>
NIST2DMolFile

> <Tox>
175

> <CAS>
123-90-0

$$$$

  CDK

  6  6  0  0  0  0  0  0  0  0999 V2000
    2.3036   -1.9950    0.0000 C   0  0  0  0  0  0  0  0  0  0  0  0
    1.1518   -2.6600    0.0000 C   0  0  0  0  0  0  0  0  0  0  0  0
    2.3036   -0.6650    0.0000 O   0  0  0  0  0  0  0  0  0  0  0  0
    0.0000   -1.9950    0.0000 O   0  0  0  0  0  0  0  0  0  0  0  0
    1.1518   -0.0000    0.0000 C   0  0  0  0  0  0  0  0  0  0  0  0
    0.0000   -0.6650    0.0000 C   0  0  0  0  0  0  0  0  0  0  0  0
  1  2  1  0  0  0  0 
  1  3  1  0  0  0  0 
  2  4  1  0  0  0  0 
  5  3  1  0  0  0  0 
  4  6  1  0  0  0  0 
  6  5  1  0  0  0  0 
M  END
> <Name>
1,4-DIOXANE

> <Source>
DSSTox2DMolFile

> <Tox>
101.5

> <CAS>
123-91-1

$$$$

  CDK

 24 23  0  0  0  0  0  0  0  0999 V2000
    2.2900   -0.6761    0.0000 C   0  0  0  0  0  0  0  0  0  0  0  0
    3.4459   -0.0000    0.0000 C   0  0  0  0  0  0  0  0  0  0  0  0
    2.2900   -2.0065    0.0000 O   0  0  0  0  0  0  0  0  0  0  0  0
    1.1559   -0.0000    0.0000 O   0  0  0  0  0  0  0  0  0  0  0  0
    4.6018   -0.6761    0.0000 C   0  0  0  0  0  0  0  0  0  0  0  0
    1.1559   -2.6607    0.0000 C   0  0  0  0  0  0  0  0  0  0  0  0
    5.7577   -0.0000    0.0000 C   0  0  0  0  0  0  0  0  0  0  0  0
    1.1559   -3.9693    0.0000 C   0  0  0  0  0  0  0  0  0  0  0  0
    6.8917   -0.6761    0.0000 C   0  0  0  0  0  0  0  0  0  0  0  0
    0.0000   -4.6454    0.0000 C   0  0  0  0  0  0  0  0  0  0  0  0
    8.0258   -0.0000    0.0000 C   0  0  0  0  0  0  0  0  0  0  0  0
    0.0000   -5.9758    0.0000 C   0  0  0  0  0  0  0  0  0  0  0  0
    9.1817   -0.6761    0.0000 C   0  0  0  0  0  0  0  0  0  0  0  0
   10.3376   -0.0000    0.0000 C   0  0  0  0  0  0  0  0  0  0  0  0
   11.4717   -0.6761    0.0000 C   0  0  0  0  0  0  0  0  0  0  0  0
   12.6276   -0.0000    0.0000 C   0  0  0  0  0  0  0  0  0  0  0  0
   13.7835   -0.6761    0.0000 C   0  0  0  0  0  0  0  0  0  0  0  0
   14.9176   -0.0000    0.0000 C   0  0  0  0  0  0  0  0  0  0  0  0
   16.0517   -0.6761    0.0000 C   0  0  0  0  0  0  0  0  0  0  0  0
   17.2075   -0.0000    0.0000 C   0  0  0  0  0  0  0  0  0  0  0  0
   18.3634   -0.6761    0.0000 C   0  0  0  0  0  0  0  0  0  0  0  0
   19.5193   -0.0000    0.0000 C   0  0  0  0  0  0  0  0  0  0  0  0
   20.6534   -0.6761    0.0000 C   0  0  0  0  0  0  0  0  0  0  0  0
   21.8093   -0.0000    0.0000 C   0  0  0  0  0  0  0  0  0  0  0  0
  1  2  1  0  0  0  0 
  1  3  1  0  0  0  0 
  1  4  2  0  0  0  0 
  2  5  1  0  0  0  0 
  3  6  1  0  0  0  0 
  5  7  1  0  0  0  0 
  6  8  1  0  0  0  0 
  7  9  1  0  0  0  0 
  8 10  1  0  0  0  0 
  9 11  1  0  0  0  0 
 10 12  1  0  0  0  0 
 11 13  1  0  0  0  0 
 13 14  1  0  0  0  0 
 14 15  1  0  0  0  0 
 15 16  1  0  0  0  0 
 16 17  1  0  0  0  0 
 17 18  1  0  0  0  0 
 18 19  1  0  0  0  0 
 19 20  1  0  0  0  0 
 20 21  1  0  0  0  0 
 21 22  1  0  0  0  0 
 22 23  1  0  0  0  0 
 23 24  1  0  0  0  0 
M  END
> <Name>
N-BUTYL STEARATE

> <Source>
DSSTox2DMolFile

> <Tox>
343

> <CAS>
123-95-5

$$$$

  CDK

 18 17  0  0  0  0  0  0  0  0999 V2000
    5.1881    1.4966    0.0000 C   0  0  0  0  0  0  0  0  0  0  0  0
    4.3401    0.9977    0.0000 C   0  0  0  0  0  0  0  0  0  0  0  0
    6.0861    0.9977    0.0000 C   0  0  0  0  0  0  0  0  0  0  0  0
    3.4920    1.4966    0.0000 C   0  0  0  0  0  0  0  0  0  0  0  0
    6.9341    1.4966    0.0000 C   0  0  0  0  0  0  0  0  0  0  0  0
    2.5941    0.9977    0.0000 C   0  0  0  0  0  0  0  0  0  0  0  0
    7.7822    0.9977    0.0000 C   0  0  0  0  0  0  0  0  0  0  0  0
    1.7460    1.4966    0.0000 O   0  0  0  0  0  0  0  0  0  0  0  0
    2.5941    0.0000    0.0000 O   0  0  0  0  0  0  0  0  0  0  0  0
    8.6801    1.4966    0.0000 C   0  0  0  0  0  0  0  0  0  0  0  0
    0.8979    0.9977    0.0000 C   0  0  0  0  0  0  0  0  0  0  0  0
    9.5282    0.9977    0.0000 C   0  0  0  0  0  0  0  0  0  0  0  0
    0.0000    1.4966    0.0000 C   0  0  0  0  0  0  0  0  0  0  0  0
   10.3762    1.4966    0.0000 C   0  0  0  0  0  0  0  0  0  0  0  0
   11.2742    0.9977    0.0000 C   0  0  0  0  0  0  0  0  0  0  0  0
   12.1222    1.4966    0.0000 C   0  0  0  0  0  0  0  0  0  0  0  0
   12.9703    0.9977    0.0000 C   0  0  0  0  0  0  0  0  0  0  0  0
   13.8682    1.4966    0.0000 C   0  0  0  0  0  0  0  0  0  0  0  0
  1  2  1  0  0  0  0 
  1  3  1  0  0  0  0 
  2  4  1  0  0  0  0 
  3  5  1  0  0  0  0 
  4  6  1  0  0  0  0 
  5  7  1  0  0  0  0 
  6  8  1  0  0  0  0 
  6  9  2  0  0  0  0 
  7 10  1  0  0  0  0 
  8 11  1  0  0  0  0 
 10 12  1  0  0  0  0 
 11 13  1  0  0  0  0 
 12 14  1  0  0  0  0 
 14 15  1  0  0  0  0 
 15 16  1  0  0  0  0 
 16 17  1  0  0  0  0 
 17 18  1  0  0  0  0 
M  END
> <Name>
ETHYLMYRISTATE

> <Source>
NIST2DMolFile

> <Tox>
295

> <CAS>
124-06-1

$$$$

  CDK

 17 16  0  0  0  0  0  0  0  0999 V2000
    2.3185   -1.3423    0.0000 C   0  0  0  0  0  0  0  0  0  0  0  0
    3.4865   -1.9873    0.0000 C   0  0  0  0  0  0  0  0  0  0  0  0
    1.1506   -1.9873    0.0000 O   0  0  0  0  0  0  0  0  0  0  0  0
    2.3185   -0.0000    0.0000 O   0  0  0  0  0  0  0  0  0  0  0  0
    4.6371   -1.3423    0.0000 C   0  0  0  0  0  0  0  0  0  0  0  0
    0.0000   -1.3423    0.0000 C   0  0  0  0  0  0  0  0  0  0  0  0
    5.8051   -1.9873    0.0000 C   0  0  0  0  0  0  0  0  0  0  0  0
    6.9731   -1.3423    0.0000 C   0  0  0  0  0  0  0  0  0  0  0  0
    8.1411   -1.9873    0.0000 C   0  0  0  0  0  0  0  0  0  0  0  0
    9.2916   -1.3423    0.0000 C   0  0  0  0  0  0  0  0  0  0  0  0
   10.4596   -1.9873    0.0000 C   0  0  0  0  0  0  0  0  0  0  0  0
   11.6276   -1.3423    0.0000 C   0  0  0  0  0  0  0  0  0  0  0  0
   12.7956   -1.9873    0.0000 C   0  0  0  0  0  0  0  0  0  0  0  0
   13.9462   -1.3423    0.0000 C   0  0  0  0  0  0  0  0  0  0  0  0
   15.1142   -1.9873    0.0000 C   0  0  0  0  0  0  0  0  0  0  0  0
   16.2821   -1.3423    0.0000 C   0  0  0  0  0  0  0  0  0  0  0  0
   17.4327   -1.9873    0.0000 C   0  0  0  0  0  0  0  0  0  0  0  0
  1  2  1  0  0  0  0 
  1  3  1  0  0  0  0 
  1  4  2  0  0  0  0 
  2  5  1  0  0  0  0 
  3  6  1  0  0  0  0 
  5  7  1  0  0  0  0 
  7  8  1  0  0  0  0 
  8  9  1  0  0  0  0 
  9 10  1  0  0  0  0 
 10 11  1  0  0  0  0 
 11 12  1  0  0  0  0 
 12 13  1  0  0  0  0 
 13 14  1  0  0  0  0 
 14 15  1  0  0  0  0 
 15 16  1  0  0  0  0 
 16 17  1  0  0  0  0 
M  END
> <Name>
METHYL MYRISTATE

> <Source>
DSSTox2DMolFile

> <Tox>
295

> <CAS>
124-10-7

$$$$

  CDK

  9  8  0  0  0  0  0  0  0  0999 V2000
    0.0000   -0.6638    0.0000 C   0  0  0  0  0  0  0  0  0  0  0  0
    1.1525   -0.0000    0.0000 C   0  0  0  0  0  0  0  0  0  0  0  0
    2.3050   -0.6638    0.0000 C   0  0  0  0  0  0  0  0  0  0  0  0
    3.4575   -0.0000    0.0000 C   0  0  0  0  0  0  0  0  0  0  0  0
    4.6099   -0.6638    0.0000 C   0  0  0  0  0  0  0  0  0  0  0  0
    5.7624   -0.0000    0.0000 C   0  0  0  0  0  0  0  0  0  0  0  0
    6.9149   -0.6638    0.0000 C   0  0  0  0  0  0  0  0  0  0  0  0
    8.0674   -0.0000    0.0000 C   0  0  0  0  0  0  0  0  0  0  0  0
    9.2199   -0.6638    0.0000 O   0  0  0  0  0  0  0  0  0  0  0  0
  1  2  1  0  0  0  0 
  2  3  1  0  0  0  0 
  3  4  1  0  0  0  0 
  4  5  1  0  0  0  0 
  5  6  1  0  0  0  0 
  6  7  1  0  0  0  0 
  7  8  1  0  0  0  0 
  8  9  2  0  0  0  0 
M  END
> <Name>
OCTANAL

> <Source>
DSSTox2DMolFile

> <Tox>
171

> <CAS>
124-13-0

$$$$

  CDK

  4  3  0  0  0  0  0  0  0  0999 V2000
    1.9950   -0.0000    0.0000 Cl  0  0  0  0  0  0  0  0  0  0  0  0
    1.3292   -1.1518    0.0000 C   0  0  0  0  0  0  0  0  0  0  0  0
    1.9950   -2.3037    0.0000 Br  0  0  0  0  0  0  0  0  0  0  0  0
    0.0000   -1.1518    0.0000 Br  0  0  0  0  0  0  0  0  0  0  0  0
  1  2  1  0  0  0  0 
  2  3  1  0  0  0  0 
  2  4  1  0  0  0  0 
M  END
> <Name>
DIBROMOCHLOROMETHANE

> <Source>
DSSTox2DMolFile

> <Tox>
120

> <CAS>
124-48-1

$$$$

  CDK

  7  7  0  0  0  0  0  0  0  0999 V2000
    1.2173   -1.2683    0.0000 S   0  0  0  0  0  0  0  0  0  0  0  0
    2.1014   -2.2442    0.0000 C   0  0  0  0  0  0  0  0  0  0  0  0
    0.0000   -1.7953    0.0000 C   0  0  0  0  0  0  0  0  0  0  0  0
    2.1014   -0.2720    0.0000 O   0  0  0  0  0  0  0  0  0  0  0  0
    0.8025   -0.0000    0.0000 O   0  0  0  0  0  0  0  0  0  0  0  0
    1.4451   -3.4003    0.0000 C   0  0  0  0  0  0  0  0  0  0  0  0
    0.1428   -3.1283    0.0000 C   0  0  0  0  0  0  0  0  0  0  0  0
  1  2  1  0  0  0  0 
  1  3  1  0  0  0  0 
  1  4  2  0  0  0  0 
  1  5  2  0  0  0  0 
  2  6  1  0  0  0  0 
  3  7  1  0  0  0  0 
  7  6  1  0  0  0  0 
M  END
> <Name>
TETRAHYDROTHIOPHENE-1,1-DIOXIDE

> <Source>
DSSTox2DMolFile

> <Tox>
285

> <CAS>
126-33-0

$$$$

  CDK

  5  4  0  0  0  0  0  0  0  0999 V2000
    0.0000   -0.0000    0.0000 N   0  0  0  0  0  0  0  0  0  0  0  0
    1.1416   -0.6587    0.0000 C   0  0  0  0  0  0  0  0  0  0  0  0
    2.3073   -1.3313    0.0000 C   0  0  0  0  0  0  0  0  0  0  0  0
    2.3073   -2.6625    0.0000 C   0  0  0  0  0  0  0  0  0  0  0  0
    3.4489   -0.6587    0.0000 C   0  0  0  0  0  0  0  0  0  0  0  0
  1  2  3  0  0  0  0 
  2  3  1  0  0  0  0 
  3  4  2  0  0  0  0 
  3  5  1  0  0  0  0 
M  END
> <Name>
METHACRYLONITRILE

> <Source>
DSSTox2DMolFile

> <Tox>
90.3

> <CAS>
126-98-7

$$$$

  CDK

 23 25  0  0  0  0  0  0  0  0999 V2000
    3.9905    4.3946    0.0000 C   0  0  0  0  0  0  0  0  0  0  0  0
    4.4451    5.2531    0.0000 C   0  0  0  0  0  0  0  0  0  0  0  0
    2.9803    4.3946    0.0000 C   0  0  0  0  0  0  0  0  0  0  0  0
    4.4451    3.4853    0.0000 C   0  0  0  0  0  0  0  0  0  0  0  0
    3.9905    6.1623    0.0000 C   0  0  0  0  0  0  0  0  0  0  0  0
    5.3543    4.7987    0.0000 C   0  0  0  0  0  0  0  0  0  0  0  0
    5.3543    5.7583    0.0000 C   0  0  0  0  0  0  0  0  0  0  0  0
    2.5257    5.2531    0.0000 C   0  0  0  0  0  0  0  0  0  0  0  0
    2.5257    3.4853    0.0000 C   0  0  0  0  0  0  0  0  0  0  0  0
    2.0206    4.3946    0.0000 C   0  0  0  0  0  0  0  0  0  0  0  0
    3.9905    2.6770    0.0000 C   0  0  0  0  0  0  0  0  0  0  0  0
    2.9803    6.1623    0.0000 C   0  0  0  0  0  0  0  0  0  0  0  0
    6.2130    5.2531    0.0000 O   0  0  0  0  0  0  0  0  0  0  0  0
    5.3543    6.7685    0.0000 O   0  0  0  0  0  0  0  0  0  0  0  0
    2.9803    2.6770    0.0000 C   0  0  0  0  0  0  0  0  0  0  0  0
    1.4648    3.4853    0.0000 C   0  0  0  0  0  0  0  0  0  0  0  0
    7.0211    5.7583    0.0000 C   0  0  0  0  0  0  0  0  0  0  0  0
    2.5257    1.7680    0.0000 C   0  0  0  0  0  0  0  0  0  0  0  0
    0.9597    2.6770    0.0000 C   0  0  0  0  0  0  0  0  0  0  0  0
    1.4648    1.7680    0.0000 C   0  0  0  0  0  0  0  0  0  0  0  0
    1.0102    0.9092    0.0000 C   0  0  0  0  0  0  0  0  0  0  0  0
    1.4648    0.0000    0.0000 C   0  0  0  0  0  0  0  0  0  0  0  0
    0.0000    0.9092    0.0000 C   0  0  0  0  0  0  0  0  0  0  0  0
  2  1  1  0  0  0  0 
  3  1  1  0  0  0  0 
  1  4  1  0  0  0  0 
  5  2  1  0  0  0  0 
  2  6  1  0  0  0  0 
  2  7  1  1  0  0  0 
  3  8  1  0  0  0  0 
  9  3  1  0  0  0  0 
  3 10  1  0  0  0  0 
  4 11  1  0  0  0  0 
 12  5  1  0  0  0  0 
  7 13  1  0  0  0  0 
  7 14  2  0  0  0  0 
  8 12  1  0  0  0  0 
  9 15  1  0  0  0  0 
 16  9  1  0  0  0  0 
 11 15  2  0  0  0  0 
 17 13  1  0  0  0  0 
 15 18  1  0  0  0  0 
 19 16  1  0  0  0  0 
 18 20  2  0  0  0  0 
 20 19  1  0  0  0  0 
 20 21  1  0  0  0  0 
 21 22  1  0  0  0  0 
 21 23  1  0  0  0  0 
M  END
> <Name>
Methyl Abietate

> <Source>
NIST2DMolFile

> <Tox>
362.5

> <CAS>
127-25-3

$$$$

  CDK

 10 11  0  0  0  0  0  0  0  0999 V2000
    0.0000   -0.9219    0.0000 C   0  0  0  0  0  0  0  0  0  0  0  0
    1.5033   -1.2671    0.0000 C   0  0  0  0  0  0  0  0  0  0  0  0
    0.8720   -2.0301    0.0000 C   0  0  0  0  0  0  0  0  0  0  0  0
    2.8657   -0.9219    0.0000 C   0  0  0  0  0  0  0  0  0  0  0  0
    2.2980   -1.7667    0.0000 C   0  0  0  0  0  0  0  0  0  0  0  0
    0.4496   -2.9702    0.0000 C   0  0  0  0  0  0  0  0  0  0  0  0
    3.7377   -2.2435    0.0000 C   0  0  0  0  0  0  0  0  0  0  0  0
    2.5478   -0.0000    0.0000 C   0  0  0  0  0  0  0  0  0  0  0  0
    3.7513   -3.2336    0.0000 C   0  0  0  0  0  0  0  0  0  0  0  0
    4.5416   -1.7530    0.0000 C   0  0  0  0  0  0  0  0  0  0  0  0
  1  2  1  0  0  0  0 
  1  3  1  0  0  0  0 
  2  4  1  0  0  0  0 
  5  3  1  0  0  0  0 
  3  6  2  0  0  0  0 
  4  7  1  0  0  0  0 
  4  8  1  0  0  0  0 
  7  5  1  0  0  0  0 
  5  8  1  0  0  0  0 
  7  9  1  0  0  0  0 
  7 10  1  0  0  0  0 
M  END
> <Name>
beta-PINENE

> <Source>
DSSTox2DMolFile

> <Tox>
166

> <CAS>
127-91-3

$$$$

  CDK

 12 13  0  0  0  0  0  0  0  0999 V2000
    0.6884    2.0604    3.1084 C   0  0  0  0  0  0  0  0  0  0  0  0
    1.2987    0.8666    3.8500 C   0  0  0  0  0  0  0  0  0  0  0  0
    1.7339    2.9442    2.5257 C   0  0  0  0  0  0  0  0  0  0  0  0
    2.0195    0.0000    3.0171 O   0  0  0  0  0  0  0  0  0  0  0  0
    2.5831    3.7865    3.4385 C   0  0  0  0  0  0  0  0  0  0  0  0
    1.9592    3.0585    1.2028 C   0  0  0  0  0  0  0  0  0  0  0  0
    4.0940    3.6526    3.0038 C   0  0  0  0  0  0  0  0  0  0  0  0
    2.5906    5.2109    2.8055 C   0  0  0  0  0  0  0  0  0  0  0  0
    3.0459    3.9659    0.7058 C   0  0  0  0  0  0  0  0  0  0  0  0
    5.0387    4.2516    4.0321 C   0  0  0  0  0  0  0  0  0  0  0  0
    4.6210    2.2957    2.5970 C   0  0  0  0  0  0  0  0  0  0  0  0
    3.7200    4.6839    1.8757 C   0  0  0  0  0  0  0  0  0  0  0  0
  1  2  1  0  0  0  0 
  1  3  1  0  0  0  0 
  2  4  1  0  0  0  0 
  3  5  1  0  0  0  0 
  6  3  2  0  0  0  0 
  7  5  1  0  0  0  0 
  5  8  1  0  0  0  0 
  6  9  1  0  0  0  0 
  7 10  1  0  0  0  0 
  7 11  1  0  0  0  0 
 12  7  1  0  0  0  0 
  8 12  1  0  0  0  0 
  9 12  1  0  0  0  0 
M  END
> <Name>
Bicyclo 3.1.1 hept-2-ene-2-ethanol, 6,6-dimethyl

> <Source>
NIST3DMolFile

> <Tox>
235

> <CAS>
128-50-7

$$$$

  CDK

 18 18  0  0  0  0  0  0  0  0999 V2000
    2.2884   -1.9983    0.0000 C   0  0  0  0  0  0  0  0  0  0  0  0
    2.2884   -3.3278    0.0000 C   0  0  0  0  0  0  0  0  0  0  0  0
    3.4406   -1.3295    0.0000 C   0  0  0  0  0  0  0  0  0  0  0  0
    1.1361   -1.3295    0.0000 C   0  0  0  0  0  0  0  0  0  0  0  0
    3.4406   -3.9885    0.0000 C   0  0  0  0  0  0  0  0  0  0  0  0
    1.1361   -3.9885    0.0000 C   0  0  0  0  0  0  0  0  0  0  0  0
    3.4406   -0.0000    0.0000 O   0  0  0  0  0  0  0  0  0  0  0  0
    4.6009   -1.9983    0.0000 O   0  0  0  0  0  0  0  0  0  0  0  0
    0.0000   -1.9983    0.0000 C   0  0  0  0  0  0  0  0  0  0  0  0
    4.6009   -3.3278    0.0000 O   0  0  0  0  0  0  0  0  0  0  0  0
    3.4406   -5.3181    0.0000 O   0  0  0  0  0  0  0  0  0  0  0  0
    0.0000   -3.3278    0.0000 C   0  0  0  0  0  0  0  0  0  0  0  0
    5.7532   -1.3295    0.0000 C   0  0  0  0  0  0  0  0  0  0  0  0
    4.6009   -5.9868    0.0000 C   0  0  0  0  0  0  0  0  0  0  0  0
    6.9054   -1.9983    0.0000 C   0  0  0  0  0  0  0  0  0  0  0  0
    4.6009   -7.3163    0.0000 C   0  0  0  0  0  0  0  0  0  0  0  0
    8.0577   -1.3295    0.0000 C   0  0  0  0  0  0  0  0  0  0  0  0
    5.7532   -7.9771    0.0000 C   0  0  0  0  0  0  0  0  0  0  0  0
  1  2  2  0  0  0  0 
  1  3  1  0  0  0  0 
  1  4  1  0  0  0  0 
  2  5  1  0  0  0  0 
  2  6  1  0  0  0  0 
  3  7  2  0  0  0  0 
  3  8  1  0  0  0  0 
  4  9  2  0  0  0  0 
  5 10  2  0  0  0  0 
  5 11  1  0  0  0  0 
  6 12  2  0  0  0  0 
  8 13  1  0  0  0  0 
  9 12  1  0  0  0  0 
 11 14  1  0  0  0  0 
 13 15  1  0  0  0  0 
 14 16  1  0  0  0  0 
 15 17  1  0  0  0  0 
 16 18  1  0  0  0  0 
M  END
> <Name>
DIPROPYL PHTHALATE

> <Source>
DSSTox2DMolFile

> <Tox>
317.5

> <CAS>
131-16-8

$$$$

  CDK

 13 15  0  0  0  0  0  0  0  0999 V2000
   -1.2562    0.7159    0.0000 C   0  0  0  0  0  0  0  0  0  0  0  0
   -0.7276   -0.5941    0.0000 C   0  0  0  0  0  0  0  0  0  0  0  0
    0.0000    1.9448    0.0000 S   0  0  0  0  0  0  0  0  0  0  0  0
   -2.6334    0.9170    0.0000 C   0  0  0  0  0  0  0  0  0  0  0  0
    0.7276   -0.5941    0.0000 C   0  0  0  0  0  0  0  0  0  0  0  0
   -1.5805   -1.6956    0.0000 C   0  0  0  0  0  0  0  0  0  0  0  0
    1.2562    0.7159    0.0000 C   0  0  0  0  0  0  0  0  0  0  0  0
   -3.4741   -0.1892    0.0000 C   0  0  0  0  0  0  0  0  0  0  0  0
    1.5804   -1.6956    0.0000 C   0  0  0  0  0  0  0  0  0  0  0  0
   -2.9531   -1.4840    0.0000 C   0  0  0  0  0  0  0  0  0  0  0  0
    2.6334    0.9169    0.0000 C   0  0  0  0  0  0  0  0  0  0  0  0
    2.9531   -1.4840    0.0000 C   0  0  0  0  0  0  0  0  0  0  0  0
    3.4742   -0.1892    0.0000 C   0  0  0  0  0  0  0  0  0  0  0  0
  1  2  2  0  0  0  0 
  1  3  1  0  0  0  0 
  1  4  1  0  0  0  0 
  2  5  1  0  0  0  0 
  2  6  1  0  0  0  0 
  7  3  1  0  0  0  0 
  8  4  2  0  0  0  0 
  5  7  1  0  0  0  0 
  5  9  2  0  0  0  0 
  6 10  2  0  0  0  0 
  7 11  2  0  0  0  0 
 10  8  1  0  0  0  0 
 12  9  1  0  0  0  0 
 11 13  1  0  0  0  0 
 13 12  2  0  0  0  0 
M  END
> <Name>
DIBENZOTHIOPHENE

> <Source>
DougDB3DMolFile

> <Tox>
332.5

> <CAS>
132-65-0

$$$$

  CDK

 13 12  0  0  0  0  0  0  0  0999 V2000
    0.6742    4.0999    3.6379 C   0  0  0  0  0  0  0  0  0  0  0  0
    2.1160    4.4621    3.9357 C   0  0  0  0  0  0  0  0  0  0  0  0
    2.9260    3.5398    3.2019 O   0  0  0  0  0  0  0  0  0  0  0  0
    4.2806    3.6553    3.2845 C   0  0  0  0  0  0  0  0  0  0  0  0
    5.0023    2.6014    2.4480 C   0  0  0  0  0  0  0  0  0  0  0  0
    4.7705    4.5237    3.9772 O   0  0  0  0  0  0  0  0  0  0  0  0
    5.9069    3.3108    1.4424 C   0  0  0  0  0  0  0  0  0  0  0  0
    5.7591    1.6269    3.3527 C   0  0  0  0  0  0  0  0  0  0  0  0
    7.1808    3.5270    1.8723 O   0  0  0  0  0  0  0  0  0  0  0  0
    5.5724    3.6575    0.3267 O   0  0  0  0  0  0  0  0  0  0  0  0
    4.8194    0.7002    4.0911 C   0  0  0  0  0  0  0  0  0  0  0  0
    8.0945    4.2428    1.0472 C   0  0  0  0  0  0  0  0  0  0  0  0
    7.9092    5.7445    1.1384 C   0  0  0  0  0  0  0  0  0  0  0  0
  1  2  1  0  0  0  0 
  2  3  1  0  0  0  0 
  3  4  1  0  0  0  0 
  4  5  1  0  0  0  0 
  4  6  2  0  0  0  0 
  5  7  1  0  0  0  0 
  5  8  1  0  0  0  0 
  7  9  1  0  0  0  0 
  7 10  2  0  0  0  0 
  8 11  1  0  0  0  0 
  9 12  1  0  0  0  0 
 12 13  1  0  0  0  0 
M  END
> <Name>
Propanedioic acid, ethyl-, diethyl ester

> <Source>
NIST3DMolFile

> <Tox>
208

> <CAS>
133-13-1

$$$$

  CDK

 17 19  0  0  0  0  0  0  0  0999 V2000
    5.7546   -2.6609    0.0000 C   0  0  0  0  0  0  0  0  0  0  0  0
    6.9055   -1.9980    0.0000 C   0  0  0  0  0  0  0  0  0  0  0  0
    4.6037   -1.9980    0.0000 C   0  0  0  0  0  0  0  0  0  0  0  0
    6.9055   -0.6629    0.0000 C   0  0  0  0  0  0  0  0  0  0  0  0
    8.0564   -2.6609    0.0000 C   0  0  0  0  0  0  0  0  0  0  0  0
    4.6037   -0.6629    0.0000 C   0  0  0  0  0  0  0  0  0  0  0  0
    3.4528   -2.6609    0.0000 N   0  0  0  0  0  0  0  0  0  0  0  0
    5.7546   -0.0000    0.0000 C   0  0  0  0  0  0  0  0  0  0  0  0
    8.0564   -0.0000    0.0000 C   0  0  0  0  0  0  0  0  0  0  0  0
    9.2074   -1.9980    0.0000 C   0  0  0  0  0  0  0  0  0  0  0  0
    2.3018   -1.9980    0.0000 C   0  0  0  0  0  0  0  0  0  0  0  0
    9.2074   -0.6629    0.0000 C   0  0  0  0  0  0  0  0  0  0  0  0
    1.1509   -2.6609    0.0000 C   0  0  0  0  0  0  0  0  0  0  0  0
    2.3018   -0.6629    0.0000 C   0  0  0  0  0  0  0  0  0  0  0  0
    0.0000   -1.9980    0.0000 C   0  0  0  0  0  0  0  0  0  0  0  0
    1.1509   -0.0000    0.0000 C   0  0  0  0  0  0  0  0  0  0  0  0
    0.0000   -0.6629    0.0000 C   0  0  0  0  0  0  0  0  0  0  0  0
  1  2  2  0  0  0  0 
  1  3  1  0  0  0  0 
  2  4  1  0  0  0  0 
  2  5  1  0  0  0  0 
  6  3  2  0  0  0  0 
  3  7  1  0  0  0  0 
  4  8  2  0  0  0  0 
  4  9  1  0  0  0  0 
 10  5  2  0  0  0  0 
  8  6  1  0  0  0  0 
  7 11  1  0  0  0  0 
  9 12  2  0  0  0  0 
 12 10  1  0  0  0  0 
 11 13  2  0  0  0  0 
 11 14  1  0  0  0  0 
 13 15  1  0  0  0  0 
 16 14  2  0  0  0  0 
 15 17  2  0  0  0  0 
 17 16  1  0  0  0  0 
M  END
> <Name>
N-PHENYL-2-NAPHTHYLAMINE

> <Source>
DSSTox2DMolFile

> <Tox>
395.5

> <CAS>
135-88-6

$$$$

  CDK

 10 11  0  0  0  0  0  0  0  0999 V2000
    0.0000    0.0000    0.0000 C   0  0  0  0  0  0  0  0  0  0  0  0
    1.2600    0.0800    0.7200 N   0  0  0  0  0  0  0  0  0  0  0  0
    1.4400   -0.8400    1.8400 C   0  0  0  0  0  0  0  0  0  0  0  0
    1.5600    1.3600    1.3400 C   0  0  0  0  0  0  0  0  0  0  0  0
    0.3000   -0.7200    2.8600 C   0  0  0  0  0  0  0  0  0  0  0  0
    2.7600   -0.4000    2.4600 C   0  0  0  0  0  0  0  0  0  0  0  0
    0.4600    1.8400    2.3200 C   0  0  0  0  0  0  0  0  0  0  0  0
    2.8800    1.0800    2.0800 C   0  0  0  0  0  0  0  0  0  0  0  0
   -0.3400    0.7000    3.0000 C   0  0  0  0  0  0  0  0  0  0  0  0
   -1.6400    0.6600    2.4600 O   0  0  0  0  0  0  0  0  0  0  0  0
  1  2  1  0  0  0  0 
  2  3  1  0  0  0  0 
  2  4  1  0  0  0  0 
  3  5  1  0  0  0  0 
  3  6  1  0  0  0  0 
  7  4  1  0  0  0  0 
  4  8  1  0  0  0  0 
  5  9  1  0  0  0  0 
  8  6  1  0  0  0  0 
  9  7  1  0  0  0  0 
  9 10  1  0  0  0  0 
M  END
> <Name>
Pseudotropine

> <Source>
NIH3DMolFile

> <Tox>
241

> <CAS>
135-97-7

$$$$

  CDK

 10 10  0  0  0  0  0  0  0  0999 V2000
    4.6084   -2.6590    0.0000 C   0  0  0  0  0  0  0  0  0  0  0  0
    3.4563   -1.9954    0.0000 C   0  0  0  0  0  0  0  0  0  0  0  0
    2.3042   -2.6590    0.0000 C   0  0  0  0  0  0  0  0  0  0  0  0
    3.4563   -0.6636    0.0000 C   0  0  0  0  0  0  0  0  0  0  0  0
    1.1521   -1.9954    0.0000 C   0  0  0  0  0  0  0  0  0  0  0  0
    2.3042   -0.0000    0.0000 C   0  0  0  0  0  0  0  0  0  0  0  0
    4.6084   -0.0000    0.0000 C   0  0  0  0  0  0  0  0  0  0  0  0
    1.1521   -0.6636    0.0000 C   0  0  0  0  0  0  0  0  0  0  0  0
    0.0000   -2.6590    0.0000 C   0  0  0  0  0  0  0  0  0  0  0  0
    0.0000   -0.0000    0.0000 N   0  0  0  0  0  0  0  0  0  0  0  0
  1  2  1  0  0  0  0 
  2  3  2  0  0  0  0 
  2  4  1  0  0  0  0 
  3  5  1  0  0  0  0 
  6  4  2  0  0  0  0 
  4  7  1  0  0  0  0 
  5  8  2  0  0  0  0 
  5  9  1  0  0  0  0 
  8  6  1  0  0  0  0 
  8 10  1  0  0  0  0 
M  END
> <Name>
2,4,5-Trimethylaniline

> <Source>
DSSTox2DMolFile

> <Tox>
234.5

> <CAS>
137-17-7

$$$$

  CDK

  6  5  0  0  0  0  0  0  0  0999 V2000
    1.1683   -0.0000    0.0000 C   0  0  0  0  0  0  0  0  0  0  0  0
    2.3228   -0.6604    0.0000 C   0  0  0  0  0  0  0  0  0  0  0  0
    0.0000   -0.6604    0.0000 O   0  0  0  0  0  0  0  0  0  0  0  0
    3.4773   -0.0000    0.0000 C   0  0  0  0  0  0  0  0  0  0  0  0
    2.3228   -1.9903    0.0000 C   0  0  0  0  0  0  0  0  0  0  0  0
    4.6179   -0.6604    0.0000 C   0  0  0  0  0  0  0  0  0  0  0  0
  1  2  1  0  0  0  0 
  1  3  1  0  0  0  0 
  2  4  1  0  0  0  0 
  2  5  1  0  0  0  0 
  4  6  1  0  0  0  0 
M  END
> <Name>
2-METHYL-1-BUTANOL

> <Source>
DSSTox2DMolFile

> <Tox>
128

> <CAS>
137-32-6

$$$$

  CDK

 13 14  0  0  0  0  0  0  0  0999 V2000
    2.5837    1.9874    0.0000 S   0  0  0  0  0  0  0  0  0  0  0  0
    1.7390    1.4906    0.0000 C   0  0  0  0  0  0  0  0  0  0  0  0
    3.4283    1.4906    0.0000 C   0  0  0  0  0  0  0  0  0  0  0  0
    0.8447    1.9874    0.0000 C   0  0  0  0  0  0  0  0  0  0  0  0
    1.7390    0.4969    0.0000 C   0  0  0  0  0  0  0  0  0  0  0  0
    3.4283    0.4969    0.0000 C   0  0  0  0  0  0  0  0  0  0  0  0
    4.2730    1.9874    0.0000 C   0  0  0  0  0  0  0  0  0  0  0  0
    0.0000    1.4906    0.0000 C   0  0  0  0  0  0  0  0  0  0  0  0
    0.8943    0.0000    0.0000 C   0  0  0  0  0  0  0  0  0  0  0  0
    4.3227    0.0000    0.0000 C   0  0  0  0  0  0  0  0  0  0  0  0
    5.1673    1.5403    0.0000 C   0  0  0  0  0  0  0  0  0  0  0  0
    0.0000    0.4472    0.0000 C   0  0  0  0  0  0  0  0  0  0  0  0
    5.1673    0.4969    0.0000 C   0  0  0  0  0  0  0  0  0  0  0  0
  1  2  1  0  0  0  0 
  1  3  1  0  0  0  0 
  4  2  2  0  0  0  0 
  2  5  1  0  0  0  0 
  6  3  2  0  0  0  0 
  3  7  1  0  0  0  0 
  8  4  1  0  0  0  0 
  5  9  2  0  0  0  0 
 10  6  1  0  0  0  0 
  7 11  2  0  0  0  0 
 12  8  2  0  0  0  0 
  9 12  1  0  0  0  0 
 13 10  2  0  0  0  0 
 11 13  1  0  0  0  0 
M  END
> <Name>
DIPHENYLSULFIDE

> <Source>
NIST2DMolFile

> <Tox>
296

> <CAS>
139-66-2

$$$$

  CDK

 11 11  0  0  0  0  0  0  0  0999 V2000
    5.7843   -1.3423    0.0000 C   0  0  0  0  0  0  0  0  0  0  0  0
    4.6219   -2.0134    0.0000 C   0  0  0  0  0  0  0  0  0  0  0  0
    5.7843   -0.0000    0.0000 O   0  0  0  0  0  0  0  0  0  0  0  0
    6.9190   -1.9927    0.0000 O   0  0  0  0  0  0  0  0  0  0  0  0
    3.4595   -1.3423    0.0000 C   0  0  0  0  0  0  0  0  0  0  0  0
    2.2764   -2.0273    0.0000 C   0  0  0  0  0  0  0  0  0  0  0  0
    1.1347   -1.3769    0.0000 C   0  0  0  0  0  0  0  0  0  0  0  0
    2.2764   -3.3696    0.0000 C   0  0  0  0  0  0  0  0  0  0  0  0
    0.0000   -2.0273    0.0000 C   0  0  0  0  0  0  0  0  0  0  0  0
    1.1347   -4.0200    0.0000 C   0  0  0  0  0  0  0  0  0  0  0  0
    0.0000   -3.3696    0.0000 C   0  0  0  0  0  0  0  0  0  0  0  0
  1  2  1  0  0  0  0 
  1  3  2  0  0  0  0 
  1  4  1  0  0  0  0 
  2  5  2  0  0  0  0 
  5  6  1  0  0  0  0 
  6  7  1  0  0  0  0 
  6  8  2  0  0  0  0 
  7  9  2  0  0  0  0 
  8 10  1  0  0  0  0 
  9 11  1  0  0  0  0 
 10 11  2  0  0  0  0 
M  END
> <Name>
2-PROPENOIC ACID, 3-PHENYL-, (E)-

> <Source>
DSSTox2DMolFile

> <Tox>
300

> <CAS>
140-10-3

$$$$

  CDK

  7  6  0  0  0  0  0  0  0  0999 V2000
    2.6592   -0.0000    0.0000 O   0  0  0  0  0  0  0  0  0  0  0  0
    1.9979   -1.1550    0.0000 C   0  0  0  0  0  0  0  0  0  0  0  0
    2.6592   -2.3053    0.0000 O   0  0  0  0  0  0  0  0  0  0  0  0
    0.6660   -1.1550    0.0000 C   0  0  0  0  0  0  0  0  0  0  0  0
    3.9912   -2.3053    0.0000 C   0  0  0  0  0  0  0  0  0  0  0  0
    0.0000   -2.3053    0.0000 C   0  0  0  0  0  0  0  0  0  0  0  0
    4.6571   -1.1550    0.0000 C   0  0  0  0  0  0  0  0  0  0  0  0
  1  2  2  0  0  0  0 
  2  3  1  0  0  0  0 
  2  4  1  0  0  0  0 
  3  5  1  0  0  0  0 
  4  6  2  0  0  0  0 
  5  7  1  0  0  0  0 
M  END
> <Name>
ETHYL ACRYLATE

> <Source>
DSSTox2DMolFile

> <Tox>
99.4

> <CAS>
140-88-5

$$$$

  CDK

 16 15  0  0  0  0  0  0  0  0999 V2000
   12.6865   -3.3366    0.0000 C   0  0  0  0  0  0  0  0  0  0  0  0
   11.5320   -3.9963    0.0000 C   0  0  0  0  0  0  0  0  0  0  0  0
   10.3776   -3.3366    0.0000 C   0  0  0  0  0  0  0  0  0  0  0  0
    9.2231   -3.9963    0.0000 C   0  0  0  0  0  0  0  0  0  0  0  0
    8.0686   -3.3366    0.0000 O   0  0  0  0  0  0  0  0  0  0  0  0
    6.9142   -3.9963    0.0000 C   0  0  0  0  0  0  0  0  0  0  0  0
    6.9142   -5.3283    0.0000 O   0  0  0  0  0  0  0  0  0  0  0  0
    5.7724   -3.3366    0.0000 C   0  0  0  0  0  0  0  0  0  0  0  0
    4.6179   -3.9963    0.0000 C   0  0  0  0  0  0  0  0  0  0  0  0
    3.4634   -3.3366    0.0000 C   0  0  0  0  0  0  0  0  0  0  0  0
    3.4634   -2.0045    0.0000 O   0  0  0  0  0  0  0  0  0  0  0  0
    2.3089   -3.9963    0.0000 O   0  0  0  0  0  0  0  0  0  0  0  0
    1.1545   -3.3366    0.0000 C   0  0  0  0  0  0  0  0  0  0  0  0
    1.1545   -2.0045    0.0000 C   0  0  0  0  0  0  0  0  0  0  0  0
    0.0000   -1.3321    0.0000 C   0  0  0  0  0  0  0  0  0  0  0  0
    0.0000   -0.0000    0.0000 C   0  0  0  0  0  0  0  0  0  0  0  0
  1  2  1  0  0  0  0 
  2  3  1  0  0  0  0 
  3  4  1  0  0  0  0 
  4  5  1  0  0  0  0 
  5  6  1  0  0  0  0 
  6  7  2  0  0  0  0 
  6  8  1  0  0  0  0 
  8  9  1  0  0  0  0 
  9 10  1  0  0  0  0 
 10 11  2  0  0  0  0 
 10 12  1  0  0  0  0 
 12 13  1  0  0  0  0 
 13 14  1  0  0  0  0 
 14 15  1  0  0  0  0 
 15 16  1  0  0  0  0 
M  END
> <Name>
Butanedioic acid, dibutyl ester

> <Source>
DSSTox2DMolFile

> <Tox>
274.5

> <CAS>
141-03-7

$$$$

  CDK

 18 17  0  0  0  0  0  0  0  0999 V2000
    4.5831   -1.3286    0.0000 C   0  0  0  0  0  0  0  0  0  0  0  0
    5.7326   -2.0004    0.0000 C   0  0  0  0  0  0  0  0  0  0  0  0
    3.4336   -2.0004    0.0000 O   0  0  0  0  0  0  0  0  0  0  0  0
    4.5831   -0.0000    0.0000 O   0  0  0  0  0  0  0  0  0  0  0  0
    6.8821   -1.3286    0.0000 C   0  0  0  0  0  0  0  0  0  0  0  0
    2.2990   -1.3286    0.0000 C   0  0  0  0  0  0  0  0  0  0  0  0
    8.0465   -2.0004    0.0000 C   0  0  0  0  0  0  0  0  0  0  0  0
    1.1495   -2.0004    0.0000 C   0  0  0  0  0  0  0  0  0  0  0  0
    9.1960   -1.3286    0.0000 C   0  0  0  0  0  0  0  0  0  0  0  0
    1.1495   -3.3291    0.0000 C   0  0  0  0  0  0  0  0  0  0  0  0
    0.0000   -1.3286    0.0000 C   0  0  0  0  0  0  0  0  0  0  0  0
   10.3455   -2.0004    0.0000 C   0  0  0  0  0  0  0  0  0  0  0  0
   11.4950   -1.3286    0.0000 O   0  0  0  0  0  0  0  0  0  0  0  0
   10.3455   -3.3291    0.0000 O   0  0  0  0  0  0  0  0  0  0  0  0
   12.6295   -2.0004    0.0000 C   0  0  0  0  0  0  0  0  0  0  0  0
   13.7790   -1.3286    0.0000 C   0  0  0  0  0  0  0  0  0  0  0  0
   13.7790   -0.0000    0.0000 C   0  0  0  0  0  0  0  0  0  0  0  0
   14.9285   -2.0004    0.0000 C   0  0  0  0  0  0  0  0  0  0  0  0
  1  2  1  0  0  0  0 
  1  3  1  0  0  0  0 
  1  4  2  0  0  0  0 
  2  5  1  0  0  0  0 
  3  6  1  0  0  0  0 
  5  7  1  0  0  0  0 
  6  8  1  0  0  0  0 
  7  9  1  0  0  0  0 
  8 10  1  0  0  0  0 
  8 11  1  0  0  0  0 
  9 12  1  0  0  0  0 
 12 13  1  0  0  0  0 
 12 14  2  0  0  0  0 
 13 15  1  0  0  0  0 
 15 16  1  0  0  0  0 
 16 17  1  0  0  0  0 
 16 18  1  0  0  0  0 
M  END
> <Name>
DIISOBUTYL ADIPATE

> <Source>
DSSTox2DMolFile

> <Tox>
279

> <CAS>
141-04-8

$$$$

  CDK

 21 20  0  0  0  0  0  0  0  0999 V2000
    4.2443   10.3076    0.0000 C   0  0  0  0  0  0  0  0  0  0  0  0
    2.8451   10.3076    0.0000 Si  0  0  0  0  0  0  0  0  0  0  0  0
    2.1455   11.5203    0.0000 C   0  0  0  0  0  0  0  0  0  0  0  0
    3.1249    8.9550    0.0000 C   0  0  0  0  0  0  0  0  0  0  0  0
    1.5391    9.8412    0.0000 O   0  0  0  0  0  0  0  0  0  0  0  0
    1.3059    8.4886    0.0000 Si  0  0  0  0  0  0  0  0  0  0  0  0
    2.3787    7.5558    0.0000 C   0  0  0  0  0  0  0  0  0  0  0  0
    0.0000    8.9550    0.0000 C   0  0  0  0  0  0  0  0  0  0  0  0
    0.6063    7.2760    0.0000 O   0  0  0  0  0  0  0  0  0  0  0  0
    1.3059    6.0633    0.0000 Si  0  0  0  0  0  0  0  0  0  0  0  0
    2.7052    6.0633    0.0000 C   0  0  0  0  0  0  0  0  0  0  0  0
    0.0000    5.5503    0.0000 C   0  0  0  0  0  0  0  0  0  0  0  0
    1.5391    4.6641    0.0000 O   0  0  0  0  0  0  0  0  0  0  0  0
    2.8451    4.1977    0.0000 Si  0  0  0  0  0  0  0  0  0  0  0  0
    3.9178    5.0838    0.0000 C   0  0  0  0  0  0  0  0  0  0  0  0
    2.1455    2.9850    0.0000 C   0  0  0  0  0  0  0  0  0  0  0  0
    4.2443    3.0316    0.0000 O   0  0  0  0  0  0  0  0  0  0  0  0
    3.9178    1.2127    0.0000 Si  0  0  0  0  0  0  0  0  0  0  0  0
    5.3170    1.2127    0.0000 C   0  0  0  0  0  0  0  0  0  0  0  0
    3.2182    0.0000    0.0000 C   0  0  0  0  0  0  0  0  0  0  0  0
    2.6119    1.7257    0.0000 C   0  0  0  0  0  0  0  0  0  0  0  0
  1  2  1  0  0  0  0 
  2  3  1  0  0  0  0 
  2  4  1  0  0  0  0 
  2  5  1  0  0  0  0 
  5  6  1  0  0  0  0 
  6  7  1  0  0  0  0 
  6  8  1  0  0  0  0 
  6  9  1  0  0  0  0 
  9 10  1  0  0  0  0 
 10 11  1  0  0  0  0 
 10 12  1  0  0  0  0 
 10 13  1  0  0  0  0 
 13 14  1  0  0  0  0 
 14 15  1  0  0  0  0 
 14 16  1  0  0  0  0 
 14 17  1  0  0  0  0 
 17 18  1  0  0  0  0 
 18 19  1  0  0  0  0 
 18 20  1  0  0  0  0 
 18 21  1  0  0  0  0 
M  END
> <Name>
DODECAMETHYLPENTASILOXANE

> <Source>
IndexNet2DMolFile

> <Tox>
232

> <CAS>
141-63-9

$$$$

  CDK

  6  5  0  0  0  0  0  0  0  0999 V2000
    0.0000   -0.0000    0.0000 C   0  0  0  0  0  0  0  0  0  0  0  0
    0.0000   -1.3307    0.0000 C   0  0  0  0  0  0  0  0  0  0  0  0
    1.1509   -1.9943    0.0000 C   0  0  0  0  0  0  0  0  0  0  0  0
    2.3053   -1.3307    0.0000 C   0  0  0  0  0  0  0  0  0  0  0  0
    3.4563   -1.9943    0.0000 Cl  0  0  0  0  0  0  0  0  0  0  0  0
    2.3053   -0.0000    0.0000 O   0  0  0  0  0  0  0  0  0  0  0  0
  1  2  1  0  0  0  0 
  2  3  1  0  0  0  0 
  3  4  1  0  0  0  0 
  4  5  1  0  0  0  0 
  4  6  2  0  0  0  0 
M  END
> <Name>
Butanoyl chloride

> <Source>
DSSTox2DMolFile

> <Tox>
102

> <CAS>
141-75-3

$$$$

  CDK

  7  6  0  0  0  0  0  0  0  0999 V2000
    1.1578   -0.0000    0.0000 C   0  0  0  0  0  0  0  0  0  0  0  0
    2.3086   -0.6586    0.0000 C   0  0  0  0  0  0  0  0  0  0  0  0
    0.0000   -0.6586    0.0000 C   0  0  0  0  0  0  0  0  0  0  0  0
    3.4664   -0.0000    0.0000 C   0  0  0  0  0  0  0  0  0  0  0  0
    4.6242   -0.6586    0.0000 C   0  0  0  0  0  0  0  0  0  0  0  0
    5.7751   -0.0000    0.0000 C   0  0  0  0  0  0  0  0  0  0  0  0
    6.9328   -0.6586    0.0000 C   0  0  0  0  0  0  0  0  0  0  0  0
  1  2  1  0  0  0  0 
  1  3  1  0  0  0  0 
  2  4  1  0  0  0  0 
  5  4  1  0  0  0  0 
  6  5  1  0  0  0  0 
  6  7  1  0  0  0  0 
M  END
> <Name>
N-HEPTANE

> <Source>
DSSTox2DMolFile

> <Tox>
98.5

> <CAS>
142-82-5

$$$$

  CDK

  7  6  0  0  0  0  0  0  0  0999 V2000
    0.0000   -0.6638    0.0000 O   0  0  0  0  0  0  0  0  0  0  0  0
    1.1548   -0.0000    0.0000 C   0  0  0  0  0  0  0  0  0  0  0  0
    2.3027   -0.6638    0.0000 C   0  0  0  0  0  0  0  0  0  0  0  0
    3.4575   -0.0000    0.0000 C   0  0  0  0  0  0  0  0  0  0  0  0
    4.6122   -0.6638    0.0000 C   0  0  0  0  0  0  0  0  0  0  0  0
    5.7601   -0.0000    0.0000 C   0  0  0  0  0  0  0  0  0  0  0  0
    6.9149   -0.6638    0.0000 C   0  0  0  0  0  0  0  0  0  0  0  0
  1  2  2  0  0  0  0 
  2  3  1  0  0  0  0 
  3  4  2  0  0  0  0 
  4  5  1  0  0  0  0 
  5  6  2  0  0  0  0 
  6  7  1  0  0  0  0 
M  END
> <Name>
2,4-HEXADIENAL

> <Source>
DSSTox2DMolFile

> <Tox>
174

> <CAS>
142-83-6

$$$$

  CDK

 14 13  0  0  0  0  0  0  0  0999 V2000
    0.0000   -1.9918    0.0000 C   0  0  0  0  0  0  0  0  0  0  0  0
    1.1480   -1.3278    0.0000 C   0  0  0  0  0  0  0  0  0  0  0  0
    2.3099   -1.9918    0.0000 C   0  0  0  0  0  0  0  0  0  0  0  0
    3.4579   -1.3278    0.0000 C   0  0  0  0  0  0  0  0  0  0  0  0
    4.6059   -1.9918    0.0000 C   0  0  0  0  0  0  0  0  0  0  0  0
    5.7678   -1.3278    0.0000 C   0  0  0  0  0  0  0  0  0  0  0  0
    6.9158   -1.9918    0.0000 C   0  0  0  0  0  0  0  0  0  0  0  0
    8.0639   -1.3278    0.0000 C   0  0  0  0  0  0  0  0  0  0  0  0
    9.2257   -1.9918    0.0000 C   0  0  0  0  0  0  0  0  0  0  0  0
   10.3738   -1.3278    0.0000 C   0  0  0  0  0  0  0  0  0  0  0  0
   11.5218   -1.9918    0.0000 C   0  0  0  0  0  0  0  0  0  0  0  0
   12.6836   -1.3278    0.0000 C   0  0  0  0  0  0  0  0  0  0  0  0
   13.8317   -1.9918    0.0000 O   0  0  0  0  0  0  0  0  0  0  0  0
   12.6836   -0.0000    0.0000 O   0  0  0  0  0  0  0  0  0  0  0  0
  1  2  1  0  0  0  0 
  2  3  1  0  0  0  0 
  3  4  1  0  0  0  0 
  4  5  1  0  0  0  0 
  5  6  1  0  0  0  0 
  6  7  1  0  0  0  0 
  7  8  1  0  0  0  0 
  8  9  1  0  0  0  0 
  9 10  1  0  0  0  0 
 10 11  1  0  0  0  0 
 11 12  1  0  0  0  0 
 12 13  1  0  0  0  0 
 12 14  2  0  0  0  0 
M  END
> <Name>
DODECANOIC ACID

> <Source>
DSSTox2DMolFile

> <Tox>
298.9

> <CAS>
143-07-7

$$$$

  CDK

 13 12  0  0  0  0  0  0  0  0999 V2000
    8.1550    2.0525    1.1094 C   0  0  0  0  0  0  0  0  0  0  0  0
    6.8170    2.7546    1.2751 C   0  0  0  0  0  0  0  0  0  0  0  0
    9.3122    3.0228    1.2836 C   0  0  0  0  0  0  0  0  0  0  0  0
    5.6607    1.7815    1.1117 C   0  0  0  0  0  0  0  0  0  0  0  0
   10.6507    2.3068    1.2043 C   0  0  0  0  0  0  0  0  0  0  0  0
    4.3330    2.5094    1.3044 C   0  0  0  0  0  0  0  0  0  0  0  0
   11.8072    3.2758    1.3896 C   0  0  0  0  0  0  0  0  0  0  0  0
    3.3073    1.5340    1.1135 O   0  0  0  0  0  0  0  0  0  0  0  0
   13.1439    2.5517    1.3858 C   0  0  0  0  0  0  0  0  0  0  0  0
    2.0065    1.9288    1.2340 C   0  0  0  0  0  0  0  0  0  0  0  0
   14.2964    3.5168    1.5492 C   0  0  0  0  0  0  0  0  0  0  0  0
    1.0366    0.8049    1.0021 C   0  0  0  0  0  0  0  0  0  0  0  0
    1.7524    3.0865    1.5031 O   0  0  0  0  0  0  0  0  0  0  0  0
  1  2  1  0  0  0  0 
  1  3  1  0  0  0  0 
  2  4  1  0  0  0  0 
  3  5  1  0  0  0  0 
  4  6  1  0  0  0  0 
  5  7  1  0  0  0  0 
  6  8  1  0  0  0  0 
  7  9  1  0  0  0  0 
  8 10  1  0  0  0  0 
  9 11  1  0  0  0  0 
 10 12  1  0  0  0  0 
 10 13  2  0  0  0  0 
M  END
> <Name>
Acetic acid, nonyl ester

> <Source>
NIST3DMolFile

> <Tox>
210

> <CAS>
143-13-5

$$$$

  CDK

 13 12  0  0  0  0  0  0  0  0999 V2000
    0.0000   -0.6638    0.0000 C   0  0  0  0  0  0  0  0  0  0  0  0
    1.1479   -0.0000    0.0000 C   0  0  0  0  0  0  0  0  0  0  0  0
    2.3096   -0.6638    0.0000 C   0  0  0  0  0  0  0  0  0  0  0  0
    3.4575   -0.0000    0.0000 C   0  0  0  0  0  0  0  0  0  0  0  0
    4.6053   -0.6638    0.0000 C   0  0  0  0  0  0  0  0  0  0  0  0
    5.7670   -0.0000    0.0000 C   0  0  0  0  0  0  0  0  0  0  0  0
    6.9149   -0.6638    0.0000 N   0  0  0  0  0  0  0  0  0  0  0  0
    8.0628   -0.0000    0.0000 C   0  0  0  0  0  0  0  0  0  0  0  0
    9.2245   -0.6638    0.0000 C   0  0  0  0  0  0  0  0  0  0  0  0
   10.3724   -0.0000    0.0000 C   0  0  0  0  0  0  0  0  0  0  0  0
   11.5202   -0.6638    0.0000 C   0  0  0  0  0  0  0  0  0  0  0  0
   12.6819   -0.0000    0.0000 C   0  0  0  0  0  0  0  0  0  0  0  0
   13.8298   -0.6638    0.0000 C   0  0  0  0  0  0  0  0  0  0  0  0
  1  2  1  0  0  0  0 
  2  3  1  0  0  0  0 
  3  4  1  0  0  0  0 
  4  5  1  0  0  0  0 
  5  6  1  0  0  0  0 
  6  7  1  0  0  0  0 
  7  8  1  0  0  0  0 
  8  9  1  0  0  0  0 
  9 10  1  0  0  0  0 
 10 11  1  0  0  0  0 
 11 12  1  0  0  0  0 
 12 13  1  0  0  0  0 
M  END
> <Name>
1-Hexanamine, N-hexyl-

> <Source>
DSSTox2DMolFile

> <Tox>
236

> <CAS>
143-16-8

$$$$

  CDK

 19 18  0  0  0  0  0  0  0  0999 V2000
    0.6640   -4.6119    0.0000 C   0  0  0  0  0  0  0  0  0  0  0  0
    1.9919   -4.6119    0.0000 C   0  0  0  0  0  0  0  0  0  0  0  0
    0.0000   -5.7604    0.0000 O   0  0  0  0  0  0  0  0  0  0  0  0
    2.6559   -3.4634    0.0000 C   0  0  0  0  0  0  0  0  0  0  0  0
    3.9838   -3.4634    0.0000 C   0  0  0  0  0  0  0  0  0  0  0  0
    4.6478   -2.3149    0.0000 C   0  0  0  0  0  0  0  0  0  0  0  0
    5.9757   -2.3149    0.0000 C   0  0  0  0  0  0  0  0  0  0  0  0
    6.6397   -1.1485    0.0000 C   0  0  0  0  0  0  0  0  0  0  0  0
    7.9676   -1.1485    0.0000 C   0  0  0  0  0  0  0  0  0  0  0  0
    8.6316   -0.0000    0.0000 C   0  0  0  0  0  0  0  0  0  0  0  0
    9.9775   -0.0000    0.0000 C   0  0  0  0  0  0  0  0  0  0  0  0
   10.6415   -1.1485    0.0000 C   0  0  0  0  0  0  0  0  0  0  0  0
   11.9694   -1.1485    0.0000 C   0  0  0  0  0  0  0  0  0  0  0  0
   12.6334   -2.3149    0.0000 C   0  0  0  0  0  0  0  0  0  0  0  0
   13.9613   -2.3149    0.0000 C   0  0  0  0  0  0  0  0  0  0  0  0
   14.6253   -3.4634    0.0000 C   0  0  0  0  0  0  0  0  0  0  0  0
   15.9532   -3.4634    0.0000 C   0  0  0  0  0  0  0  0  0  0  0  0
   16.6172   -4.6119    0.0000 C   0  0  0  0  0  0  0  0  0  0  0  0
   17.9451   -4.6119    0.0000 C   0  0  0  0  0  0  0  0  0  0  0  0
  1  2  1  0  0  0  0 
  1  3  1  0  0  0  0 
  2  4  1  0  0  0  0 
  4  5  1  0  0  0  0 
  5  6  1  0  0  0  0 
  6  7  1  0  0  0  0 
  7  8  1  0  0  0  0 
  8  9  1  0  0  0  0 
  9 10  1  0  0  0  0 
 10 11  2  0  0  0  0 
 11 12  1  0  0  0  0 
 12 13  1  0  0  0  0 
 13 14  1  0  0  0  0 
 14 15  1  0  0  0  0 
 15 16  1  0  0  0  0 
 16 17  1  0  0  0  0 
 17 18  1  0  0  0  0 
 18 19  1  0  0  0  0 
M  END
> <Name>
OLEYL ALCOHOL (CIS)

> <Source>
DSSTox2DMolFile

> <Tox>
334

> <CAS>
143-28-2

$$$$

  CDK

 11 11  0  0  0  0  0  0  0  0999 V2000
    4.6067   -1.9891    0.0000 C   0  0  0  0  0  0  0  0  0  0  0  0
    5.7531   -2.6590    0.0000 C   0  0  0  0  0  0  0  0  0  0  0  0
    3.4533   -2.6590    0.0000 C   0  0  0  0  0  0  0  0  0  0  0  0
    4.6067   -0.6630    0.0000 C   0  0  0  0  0  0  0  0  0  0  0  0
    6.9065   -1.9891    0.0000 O   0  0  0  0  0  0  0  0  0  0  0  0
    3.4533   -3.9851    0.0000 O   0  0  0  0  0  0  0  0  0  0  0  0
    2.2999   -1.9891    0.0000 C   0  0  0  0  0  0  0  0  0  0  0  0
    3.4533   -0.0000    0.0000 C   0  0  0  0  0  0  0  0  0  0  0  0
    1.1534   -2.6590    0.0000 O   0  0  0  0  0  0  0  0  0  0  0  0
    2.2999   -0.6630    0.0000 C   0  0  0  0  0  0  0  0  0  0  0  0
    0.0000   -1.9891    0.0000 C   0  0  0  0  0  0  0  0  0  0  0  0
  1  2  1  0  0  0  0 
  1  3  2  0  0  0  0 
  1  4  1  0  0  0  0 
  2  5  2  0  0  0  0 
  3  6  1  0  0  0  0 
  3  7  1  0  0  0  0 
  8  4  2  0  0  0  0 
  7  9  1  0  0  0  0 
  7 10  2  0  0  0  0 
 10  8  1  0  0  0  0 
  9 11  1  0  0  0  0 
M  END
> <Name>
O-VANILLIN

> <Source>
DSSTox2DMolFile

> <Tox>
265.5

> <CAS>
148-53-8

$$$$

  CDK

  8  7  0  0  0  0  0  0  0  0999 V2000
    1.0606    1.6140    5.4847 O   0  0  0  0  0  0  0  0  0  0  0  0
    0.9416    1.1078    4.1735 C   0  0  0  0  0  0  0  0  0  0  0  0
    2.1580    1.6258    3.3742 C   0  0  0  0  0  0  0  0  0  0  0  0
    3.3566    1.0132    3.8271 O   0  0  0  0  0  0  0  0  0  0  0  0
    2.0296    1.2524    1.8696 C   0  0  0  0  0  0  0  0  0  0  0  0
    0.8966    1.9436    1.3792 O   0  0  0  0  0  0  0  0  0  0  0  0
    3.3044    1.6660    1.0870 C   0  0  0  0  0  0  0  0  0  0  0  0
    4.4147    0.8786    1.4078 O   0  0  0  0  0  0  0  0  0  0  0  0
  1  2  1  0  0  0  0 
  2  3  1  0  0  0  0 
  3  4  1  0  0  0  0 
  3  5  1  0  0  0  0 
  5  6  1  0  0  0  0 
  5  7  1  0  0  0  0 
  7  8  1  0  0  0  0 
M  END
> <Name>
ERYTHRITOL

> <Source>
NIST3DMolFile

> <Tox>
330.5

> <CAS>
149-32-6

$$$$

  CDK

  5  4  0  0  0  0  0  0  0  0999 V2000
    1.8651    1.4934   -1.2478 N   0  0  0  0  0  0  0  0  0  0  0  0
    1.4986    0.1161   -1.5564 C   0  0  0  0  0  0  0  0  0  0  0  0
    0.8844   -0.5573   -0.3318 C   0  0  0  0  0  0  0  0  0  0  0  0
    0.5221   -1.9510   -0.6244 C   0  0  0  0  0  0  0  0  0  0  0  0
    0.2354   -3.0519   -0.8534 N   0  0  0  0  0  0  0  0  0  0  0  0
  1  2  1  0  0  0  0 
  2  3  1  0  0  0  0 
  3  4  1  0  0  0  0 
  5  4  3  0  0  0  0 
M  END
> <Name>
Propanenitrile, 3-amino-

> <Source>
Chemidplus3DMolFile

> <Tox>
185

> <CAS>
151-18-8

$$$$

  CDK

  3  3  0  0  0  0  0  0  0  0999 V2000
    0.0000   -1.1518    0.0000 C   0  0  0  0  0  0  0  0  0  0  0  0
    0.6650   -0.0000    0.0000 C   0  0  0  0  0  0  0  0  0  0  0  0
    1.3300   -1.1518    0.0000 N   0  0  0  0  0  0  0  0  0  0  0  0
  1  2  1  0  0  0  0 
  1  3  1  0  0  0  0 
  2  3  1  0  0  0  0 
M  END
> <Name>
AZIRIDINE

> <Source>
DSSTox2DMolFile

> <Tox>
56

> <CAS>
151-56-4

$$$$

  CDK

 10 10  0  0  0  0  0  0  0  0999 V2000
    1.9962   -1.1553    0.0000 O   0  0  0  0  0  0  0  0  0  0  0  0
    3.3270   -1.1553    0.0000 C   0  0  0  0  0  0  0  0  0  0  0  0
    1.3308   -0.0000    0.0000 C   0  0  0  0  0  0  0  0  0  0  0  0
    3.9850   -0.0000    0.0000 C   0  0  0  0  0  0  0  0  0  0  0  0
    3.9850   -2.3033    0.0000 C   0  0  0  0  0  0  0  0  0  0  0  0
    0.0000   -0.0000    0.0000 C   0  0  0  0  0  0  0  0  0  0  0  0
    5.3158   -0.0000    0.0000 C   0  0  0  0  0  0  0  0  0  0  0  0
    5.3158   -2.3033    0.0000 C   0  0  0  0  0  0  0  0  0  0  0  0
    5.9812   -1.1553    0.0000 C   0  0  0  0  0  0  0  0  0  0  0  0
    7.3120   -1.1553    0.0000 N   0  0  0  0  0  0  0  0  0  0  0  0
  1  2  1  0  0  0  0 
  1  3  1  0  0  0  0 
  2  4  2  0  0  0  0 
  2  5  1  0  0  0  0 
  3  6  1  0  0  0  0 
  4  7  1  0  0  0  0 
  8  5  2  0  0  0  0 
  7  9  2  0  0  0  0 
  9  8  1  0  0  0  0 
  9 10  1  0  0  0  0 
M  END
> <Name>
P-ETHOXYANILINE

> <Source>
DSSTox2DMolFile

> <Tox>
254

> <CAS>
156-43-4

$$$$

  CDK

  5  4  0  0  0  0  0  0  0  0999 V2000
   -1.3683   -0.5451   -0.2629 C   0  0  0  0  0  0  0  0  0  0  0  0
    0.0416   -0.6569    0.3110 C   0  0  0  0  0  0  0  0  0  0  0  0
   -1.9463    0.6493    0.2123 O   0  0  0  0  0  0  0  0  0  0  0  0
    1.0200    0.2723   -0.4043 C   0  0  0  0  0  0  0  0  0  0  0  0
    2.4002    0.2157    0.1084 N   0  0  0  0  0  0  0  0  0  0  0  0
  1  2  1  0  0  0  0 
  1  3  1  0  0  0  0 
  2  4  1  0  0  0  0 
  4  5  1  0  0  0  0 
M  END
> <Name>
PROPANOLAMINE

> <Source>
DougDB3DMolFile

> <Tox>
187.5

> <CAS>
156-87-6

$$$$

  CDK

 11 12  0  0  0  0  0  0  0  0999 V2000
    2.9302    0.9955    1.4142 C   0  0  0  0  0  0  0  0  0  0  0  0
    3.8284    2.0842    2.0449 C   0  0  0  0  0  0  0  0  0  0  0  0
    1.4427    1.2491    1.5882 C   0  0  0  0  0  0  0  0  0  0  0  0
    4.5116    2.8711    0.9058 C   0  0  0  0  0  0  0  0  0  0  0  0
    4.8962    1.4110    2.9344 C   0  0  0  0  0  0  0  0  0  0  0  0
    3.0040    3.0290    2.9317 C   0  0  0  0  0  0  0  0  0  0  0  0
    1.0958    2.6927    1.2847 C   0  0  0  0  0  0  0  0  0  0  0  0
    5.9135    3.3256    1.2654 C   0  0  0  0  0  0  0  0  0  0  0  0
    6.0984    0.9587    2.1252 C   0  0  0  0  0  0  0  0  0  0  0  0
    1.7988    3.6510    2.2400 C   0  0  0  0  0  0  0  0  0  0  0  0
    6.8396    2.1438    1.5205 C   0  0  0  0  0  0  0  0  0  0  0  0
  2  1  1  0  0  0  0 
  1  3  1  0  0  0  0 
  2  4  1  0  0  0  0 
  5  2  1  0  0  0  0 
  6  2  1  0  0  0  0 
  3  7  1  0  0  0  0 
  4  8  1  0  0  0  0 
  9  5  1  0  0  0  0 
 10  6  1  0  0  0  0 
  7 10  1  0  0  0  0 
  8 11  1  0  0  0  0 
 11  9  1  0  0  0  0 
M  END
> <Name>
SPIRO[5.5]UNDECANE

> <Source>
NIST3DMolFile

> <Tox>
207

> <CAS>
180-43-8

$$$$

  CDK

  5  6  0  0  0  0  0  0  0  0999 V2000
    1.9531    2.2668    0.7629 C   0  0  0  0  0  0  0  0  0  0  0  0
    1.9575    0.7432    0.8241 C   0  0  0  0  0  0  0  0  0  0  0  0
    3.4099    2.3073    1.2481 C   0  0  0  0  0  0  0  0  0  0  0  0
    1.0825    1.5410    1.7520 C   0  0  0  0  0  0  0  0  0  0  0  0
    3.4144    0.7504    1.3106 C   0  0  0  0  0  0  0  0  0  0  0  0
  2  1  1  0  0  0  0 
  1  3  1  0  0  0  0 
  4  1  1  0  0  0  0 
  5  2  1  0  0  0  0 
  2  4  1  0  0  0  0 
  3  5  1  0  0  0  0 
M  END
> <Name>
BICYCLO(2.1.0)PENTANE

> <Source>
NIST3DMolFile

> <Tox>
45.5

> <CAS>
185-94-4

$$$$

  CDK

 22 27  0  0  0  0  0  0  0  0999 V2000
    4.3185   -2.5336    0.0000 C   0  0  0  0  0  0  0  0  0  0  0  0
    5.4155   -1.9067    0.0000 C   0  0  0  0  0  0  0  0  0  0  0  0
    4.3185   -3.8048    0.0000 C   0  0  0  0  0  0  0  0  0  0  0  0
    3.2127   -1.9067    0.0000 C   0  0  0  0  0  0  0  0  0  0  0  0
    6.5038   -2.5336    0.0000 C   0  0  0  0  0  0  0  0  0  0  0  0
    5.4155   -0.6443    0.0000 C   0  0  0  0  0  0  0  0  0  0  0  0
    3.0734   -4.1269    0.0000 C   0  0  0  0  0  0  0  0  0  0  0  0
    5.4155   -4.4491    0.0000 C   0  0  0  0  0  0  0  0  0  0  0  0
    2.3073   -2.7948    0.0000 C   0  0  0  0  0  0  0  0  0  0  0  0
    3.2127   -0.6443    0.0000 C   0  0  0  0  0  0  0  0  0  0  0  0
    6.5038   -3.8048    0.0000 C   0  0  0  0  0  0  0  0  0  0  0  0
    7.6096   -1.9067    0.0000 C   0  0  0  0  0  0  0  0  0  0  0  0
    4.3185   -0.0000    0.0000 C   0  0  0  0  0  0  0  0  0  0  0  0
    6.5038   -0.0000    0.0000 C   0  0  0  0  0  0  0  0  0  0  0  0
    2.3073   -5.4678    0.0000 C   0  0  0  0  0  0  0  0  0  0  0  0
    0.7662   -2.7948    0.0000 C   0  0  0  0  0  0  0  0  0  0  0  0
    7.6096   -4.4491    0.0000 C   0  0  0  0  0  0  0  0  0  0  0  0
    7.6096   -0.6443    0.0000 C   0  0  0  0  0  0  0  0  0  0  0  0
    8.7066   -2.5336    0.0000 C   0  0  0  0  0  0  0  0  0  0  0  0
    0.7662   -5.4678    0.0000 C   0  0  0  0  0  0  0  0  0  0  0  0
    0.0000   -4.1269    0.0000 C   0  0  0  0  0  0  0  0  0  0  0  0
    8.7066   -3.8048    0.0000 C   0  0  0  0  0  0  0  0  0  0  0  0
  1  2  1  0  0  0  0 
  1  3  1  0  0  0  0 
  1  4  2  0  0  0  0 
  2  5  1  0  0  0  0 
  2  6  2  0  0  0  0 
  3  7  1  0  0  0  0 
  3  8  2  0  0  0  0 
  4  9  1  0  0  0  0 
  4 10  1  0  0  0  0 
  5 11  2  0  0  0  0 
  5 12  1  0  0  0  0 
  6 13  1  0  0  0  0 
  6 14  1  0  0  0  0 
  7 15  1  0  0  0  0 
  7  9  2  0  0  0  0 
  8 11  1  0  0  0  0 
  9 16  1  0  0  0  0 
 10 13  2  0  0  0  0 
 11 17  1  0  0  0  0 
 12 18  1  0  0  0  0 
 12 19  2  0  0  0  0 
 14 18  2  0  0  0  0 
 15 20  2  0  0  0  0 
 16 21  2  0  0  0  0 
 17 22  2  0  0  0  0 
 19 22  1  0  0  0  0 
 20 21  1  0  0  0  0 
M  END
> <Name>
INDENO(1,2,3-CD)PYRENE

> <Source>
DSSTox2DMolFile

> <Tox>
536

> <CAS>
193-39-5

$$$$

  CDK

 15 18  0  0  0  0  0  0  0  0999 V2000
    3.9398   -2.2654    0.0000 C   0  0  0  0  0  0  0  0  0  0  0  0
    4.5833   -1.1425    0.0000 C   0  0  0  0  0  0  0  0  0  0  0  0
    4.5702   -3.4276    0.0000 C   0  0  0  0  0  0  0  0  0  0  0  0
    2.5937   -2.2654    0.0000 C   0  0  0  0  0  0  0  0  0  0  0  0
    5.9097   -1.1425    0.0000 C   0  0  0  0  0  0  0  0  0  0  0  0
    3.9332   -0.0000    0.0000 C   0  0  0  0  0  0  0  0  0  0  0  0
    5.9032   -3.4276    0.0000 C   0  0  0  0  0  0  0  0  0  0  0  0
    3.3685   -4.1237    0.0000 C   0  0  0  0  0  0  0  0  0  0  0  0
    2.0356   -3.3751    0.0000 C   0  0  0  0  0  0  0  0  0  0  0  0
    1.9502   -1.1491    0.0000 C   0  0  0  0  0  0  0  0  0  0  0  0
    6.5664   -2.2851    0.0000 C   0  0  0  0  0  0  0  0  0  0  0  0
    2.6134   -0.0000    0.0000 C   0  0  0  0  0  0  0  0  0  0  0  0
    0.6369   -3.3751    0.0000 C   0  0  0  0  0  0  0  0  0  0  0  0
    0.6501   -1.1491    0.0000 C   0  0  0  0  0  0  0  0  0  0  0  0
    0.0000   -2.2720    0.0000 C   0  0  0  0  0  0  0  0  0  0  0  0
  1  2  1  0  0  0  0 
  1  3  2  0  0  0  0 
  1  4  1  0  0  0  0 
  2  5  2  0  0  0  0 
  2  6  1  0  0  0  0 
  7  3  1  0  0  0  0 
  3  8  1  0  0  0  0 
  9  4  1  0  0  0  0 
 10  4  2  0  0  0  0 
  5 11  1  0  0  0  0 
 12  6  2  0  0  0  0 
 11  7  2  0  0  0  0 
  8  9  1  0  0  0  0 
  9 13  2  0  0  0  0 
 14 10  1  0  0  0  0 
 10 12  1  0  0  0  0 
 13 15  1  0  0  0  0 
 15 14  2  0  0  0  0 
M  END
> <Name>
4,5-METHYLENEPHENANTHRENE

> <Source>
DSSTox2DMolFile

> <Tox>
353

> <CAS>
203-64-5

$$$$

  CDK

 18 21  0  0  0  0  0  0  0  0999 V2000
    3.9927   -2.3075    0.0000 C   0  0  0  0  0  0  0  0  0  0  0  0
    4.6495   -1.1580    0.0000 C   0  0  0  0  0  0  0  0  0  0  0  0
    4.6495   -3.4569    0.0000 C   0  0  0  0  0  0  0  0  0  0  0  0
    2.6618   -2.3075    0.0000 C   0  0  0  0  0  0  0  0  0  0  0  0
    5.9804   -1.1580    0.0000 C   0  0  0  0  0  0  0  0  0  0  0  0
    3.9927   -0.0000    0.0000 C   0  0  0  0  0  0  0  0  0  0  0  0
    5.9804   -3.4569    0.0000 C   0  0  0  0  0  0  0  0  0  0  0  0
    1.9963   -1.1580    0.0000 C   0  0  0  0  0  0  0  0  0  0  0  0
    1.9963   -3.4569    0.0000 C   0  0  0  0  0  0  0  0  0  0  0  0
    6.6458   -0.0000    0.0000 C   0  0  0  0  0  0  0  0  0  0  0  0
    6.6458   -2.3075    0.0000 C   0  0  0  0  0  0  0  0  0  0  0  0
    2.6618   -0.0000    0.0000 C   0  0  0  0  0  0  0  0  0  0  0  0
    0.6654   -1.1580    0.0000 C   0  0  0  0  0  0  0  0  0  0  0  0
    0.6654   -3.4569    0.0000 C   0  0  0  0  0  0  0  0  0  0  0  0
    7.9767   -0.0000    0.0000 C   0  0  0  0  0  0  0  0  0  0  0  0
    7.9767   -2.3075    0.0000 C   0  0  0  0  0  0  0  0  0  0  0  0
    0.0000   -2.3075    0.0000 C   0  0  0  0  0  0  0  0  0  0  0  0
    8.6422   -1.1580    0.0000 C   0  0  0  0  0  0  0  0  0  0  0  0
  1  2  2  0  0  0  0 
  1  3  1  0  0  0  0 
  1  4  1  0  0  0  0 
  2  5  1  0  0  0  0 
  2  6  1  0  0  0  0 
  7  3  2  0  0  0  0 
  8  4  2  0  0  0  0 
  4  9  1  0  0  0  0 
  5 10  1  0  0  0  0 
  5 11  2  0  0  0  0 
  6 12  2  0  0  0  0 
 11  7  1  0  0  0  0 
 12  8  1  0  0  0  0 
  8 13  1  0  0  0  0 
  9 14  2  0  0  0  0 
 10 15  2  0  0  0  0 
 16 11  1  0  0  0  0 
 17 13  2  0  0  0  0 
 14 17  1  0  0  0  0 
 15 18  1  0  0  0  0 
 18 16  2  0  0  0  0 
M  END
> <Name>
CHRYSENE

> <Source>
DSSTox2DMolFile

> <Tox>
448

> <CAS>
218-01-9

$$$$

  CDK

 10 11  0  0  0  0  0  0  0  0999 V2000
   -1.1809    1.3928    0.0001 N   0  0  0  0  0  0  0  0  0  0  0  0
   -0.0324    0.7049    0.0002 C   0  0  0  0  0  0  0  0  0  0  0  0
   -2.3063    0.6669   -0.0001 C   0  0  0  0  0  0  0  0  0  0  0  0
   -0.0401   -0.6957    0.0001 C   0  0  0  0  0  0  0  0  0  0  0  0
    1.1896    1.3742    0.0000 C   0  0  0  0  0  0  0  0  0  0  0  0
   -2.3744   -0.6713   -0.0002 N   0  0  0  0  0  0  0  0  0  0  0  0
   -1.2102   -1.3540    0.0000 N   0  0  0  0  0  0  0  0  0  0  0  0
    1.1698   -1.3866    0.0002 C   0  0  0  0  0  0  0  0  0  0  0  0
    2.3974    0.6780   -0.0002 C   0  0  0  0  0  0  0  0  0  0  0  0
    2.3874   -0.7092   -0.0001 C   0  0  0  0  0  0  0  0  0  0  0  0
  1  2  1  0  0  0  0 
  1  3  2  0  0  0  0 
  2  4  1  0  0  0  0 
  2  5  2  0  0  0  0 
  6  3  1  0  0  0  0 
  7  4  1  0  0  0  0 
  4  8  2  0  0  0  0 
  5  9  1  0  0  0  0 
  7  6  2  0  0  0  0 
  8 10  1  0  0  0  0 
  9 10  2  0  0  0  0 
M  END
> <Name>
1,2,4-BENZOTRIAZINE

> <Source>
Chemidplus3DMolFile

> <Tox>
237.5

> <CAS>
254-87-5

$$$$

  CDK

  9 10  0  0  0  0  0  0  0  0999 V2000
    0.0000    0.0000    0.0000 N   0  0  0  0  0  0  0  0  0  0  0  0
   -0.7000   -1.1600    0.1000 C   0  0  0  0  0  0  0  0  0  0  0  0
   -0.7800    1.0800   -0.0200 N   0  0  0  0  0  0  0  0  0  0  0  0
   -2.0000   -0.6600    0.1400 C   0  0  0  0  0  0  0  0  0  0  0  0
   -2.1000    0.7400    0.0800 C   0  0  0  0  0  0  0  0  0  0  0  0
   -3.2000   -1.4000    0.2400 C   0  0  0  0  0  0  0  0  0  0  0  0
   -3.2800    1.4800    0.1000 C   0  0  0  0  0  0  0  0  0  0  0  0
   -4.4400   -0.7000    0.2800 C   0  0  0  0  0  0  0  0  0  0  0  0
   -4.4600    0.7200    0.2000 C   0  0  0  0  0  0  0  0  0  0  0  0
  1  2  2  0  0  0  0 
  1  3  1  0  0  0  0 
  2  4  1  0  0  0  0 
  5  3  1  0  0  0  0 
  4  5  1  0  0  0  0 
  4  6  2  0  0  0  0 
  5  7  2  0  0  0  0 
  6  8  1  0  0  0  0 
  7  9  1  0  0  0  0 
  9  8  2  0  0  0  0 
M  END
> <Name>
INDAZOLE

> <Source>
NIH3DMolFile

> <Tox>
269

> <CAS>
271-44-3

$$$$

  CDK

  9 10  0  0  0  0  0  0  0  0999 V2000
    3.3158    2.4479    2.1158 C   0  0  0  0  0  0  0  0  0  0  0  0
    3.3170    1.3814    1.1944 C   0  0  0  0  0  0  0  0  0  0  0  0
    4.6242    2.7993    2.4213 O   0  0  0  0  0  0  0  0  0  0  0  0
    2.1443    3.0007    2.5944 C   0  0  0  0  0  0  0  0  0  0  0  0
    4.6261    1.0295    0.8923 O   0  0  0  0  0  0  0  0  0  0  0  0
    2.1467    0.8276    0.7146 C   0  0  0  0  0  0  0  0  0  0  0  0
    5.4627    1.9118    1.6609 C   0  0  0  0  0  0  0  0  0  0  0  0
    0.9550    2.4399    2.1078 C   0  0  0  0  0  0  0  0  0  0  0  0
    0.9560    1.3885    1.1984 C   0  0  0  0  0  0  0  0  0  0  0  0
  1  2  2  0  0  0  0 
  1  3  1  0  0  0  0 
  4  1  1  0  0  0  0 
  5  2  1  0  0  0  0 
  2  6  1  0  0  0  0 
  3  7  1  0  0  0  0 
  8  4  2  0  0  0  0 
  7  5  1  0  0  0  0 
  6  9  2  0  0  0  0 
  9  8  1  0  0  0  0 
M  END
> <Name>
1,3-BENZODIOXOLE

> <Source>
NIST3DMolFile

> <Tox>
172.5

> <CAS>
274-09-9

$$$$

  CDK

  7  8  0  0  0  0  0  0  0  0999 V2000
    1.7492    1.4993    0.0000 C   0  0  0  0  0  0  0  0  0  0  0  0
    1.7492    0.4998    0.0000 C   0  0  0  0  0  0  0  0  0  0  0  0
    2.5988    0.9995    0.0000 N   0  0  0  0  0  0  0  0  0  0  0  0
    0.8496    1.9991    0.0000 C   0  0  0  0  0  0  0  0  0  0  0  0
    0.8496    0.0000    0.0000 C   0  0  0  0  0  0  0  0  0  0  0  0
    0.0000    1.4993    0.0000 C   0  0  0  0  0  0  0  0  0  0  0  0
    0.0000    0.4998    0.0000 C   0  0  0  0  0  0  0  0  0  0  0  0
  2  1  1  0  0  0  0 
  1  3  1  0  0  0  0 
  4  1  1  0  0  0  0 
  3  2  1  0  0  0  0 
  2  5  1  0  0  0  0 
  6  4  1  0  0  0  0 
  5  7  1  0  0  0  0 
  7  6  1  0  0  0  0 
M  END
> <Name>
7-AZABICYCLO[4.1.0]HEPTANE

> <Source>
NIST2DMolFile

> <Tox>
150

> <CAS>
286-18-0

$$$$

  CDK

  5  5  0  0  0  0  0  0  0  0999 V2000
   -0.6064   -0.2937    0.0000 N   0  0  0  0  0  0  0  0  0  0  0  0
   -0.1214   -0.9611    0.0000 N   0  0  0  0  0  0  0  0  0  0  0  0
   -0.1214    0.3738    0.0000 C   0  0  0  0  0  0  0  0  0  0  0  0
    0.6632   -0.7062    0.0000 N   0  0  0  0  0  0  0  0  0  0  0  0
    0.6632    0.1188    0.0000 C   0  0  0  0  0  0  0  0  0  0  0  0
  1  2  1  0  0  0  0 
  1  3  1  0  0  0  0 
  2  4  2  0  0  0  0 
  5  3  2  0  0  0  0 
  4  5  1  0  0  0  0 
M  END
> <Name>
2H-1,2,3-TRIAZOLE

> <Source>
Smiles

> <Tox>
204

> <CAS>
288-36-8

$$$$

  CDK

  7  7  0  0  0  0  0  0  0  0999 V2000
    2.0726    1.0369    1.8509 C   0  0  0  0  0  0  0  0  0  0  0  0
    0.9963    2.0074    1.3885 C   0  0  0  0  0  0  0  0  0  0  0  0
    3.3788    1.2099    1.0899 C   0  0  0  0  0  0  0  0  0  0  0  0
    0.9923    3.3443    2.1153 C   0  0  0  0  0  0  0  0  0  0  0  0
    4.1713    2.4378    1.5054 C   0  0  0  0  0  0  0  0  0  0  0  0
    2.3571    3.9348    2.4377 C   0  0  0  0  0  0  0  0  0  0  0  0
    3.4046    3.7430    1.3515 C   0  0  0  0  0  0  0  0  0  0  0  0
  1  2  1  0  0  0  0 
  3  1  1  0  0  0  0 
  2  4  1  0  0  0  0 
  5  3  1  0  0  0  0 
  4  6  1  0  0  0  0 
  7  5  1  0  0  0  0 
  6  7  1  0  0  0  0 
M  END
> <Name>
CYCLOHEPTANE

> <Source>
NIST3DMolFile

> <Tox>
118.4

> <CAS>
291-64-5

$$$$

  CDK

 24 23  0  0  0  0  0  0  0  0999 V2000
    0.7177   -1.4410   -1.2352 F   0  0  0  0  0  0  0  0  0  0  0  0
   -0.1550   -0.4539   -0.8848 C   0  0  0  0  0  0  0  0  0  0  0  0
   -0.9386   -0.2681   -1.9855 F   0  0  0  0  0  0  0  0  0  0  0  0
    0.6319    0.8295   -0.6574 C   0  0  0  0  0  0  0  0  0  0  0  0
   -1.0286   -0.9891    0.2414 C   0  0  0  0  0  0  0  0  0  0  0  0
   -0.2486    1.8498   -0.4561 F   0  0  0  0  0  0  0  0  0  0  0  0
    1.2677    1.1312   -1.8264 F   0  0  0  0  0  0  0  0  0  0  0  0
    1.6568    0.8747    0.4689 C   0  0  0  0  0  0  0  0  0  0  0  0
   -1.5732   -2.1645   -0.1919 F   0  0  0  0  0  0  0  0  0  0  0  0
   -0.2314   -1.3255    1.2929 F   0  0  0  0  0  0  0  0  0  0  0  0
   -2.1593   -0.1227    0.7753 C   0  0  0  0  0  0  0  0  0  0  0  0
    2.1754    2.1368    0.4982 F   0  0  0  0  0  0  0  0  0  0  0  0
    1.0176    0.7196    1.6600 F   0  0  0  0  0  0  0  0  0  0  0  0
    2.8128   -0.1148    0.4228 C   0  0  0  0  0  0  0  0  0  0  0  0
   -2.7704   -0.8216    1.7756 F   0  0  0  0  0  0  0  0  0  0  0  0
   -1.6550    0.9937    1.3573 F   0  0  0  0  0  0  0  0  0  0  0  0
   -3.2247    0.2806   -0.2140 C   0  0  0  0  0  0  0  0  0  0  0  0
    3.5735    0.0838    1.5381 F   0  0  0  0  0  0  0  0  0  0  0  0
    2.3363   -1.3825    0.5281 F   0  0  0  0  0  0  0  0  0  0  0  0
    3.7303   -0.0467   -0.7859 C   0  0  0  0  0  0  0  0  0  0  0  0
   -3.8500   -0.7861   -0.7507 F   0  0  0  0  0  0  0  0  0  0  0  0
   -2.6764    0.9793   -1.2340 F   0  0  0  0  0  0  0  0  0  0  0  0
   -4.1590    1.0654    0.3628 F   0  0  0  0  0  0  0  0  0  0  0  0
    4.7505   -1.0280   -0.6997 O   0  0  0  0  0  0  0  0  0  0  0  0
  1  2  1  0  0  0  0 
  3  2  1  0  0  0  0 
  2  4  1  0  0  0  0 
  2  5  1  0  0  0  0 
  6  4  1  0  0  0  0 
  7  4  1  0  0  0  0 
  4  8  1  0  0  0  0 
  9  5  1  0  0  0  0 
 10  5  1  0  0  0  0 
  5 11  1  0  0  0  0 
 12  8  1  0  0  0  0 
 13  8  1  0  0  0  0 
  8 14  1  0  0  0  0 
 15 11  1  0  0  0  0 
 16 11  1  0  0  0  0 
 11 17  1  0  0  0  0 
 18 14  1  0  0  0  0 
 19 14  1  0  0  0  0 
 14 20  1  0  0  0  0 
 21 17  1  0  0  0  0 
 22 17  1  0  0  0  0 
 23 17  1  0  0  0  0 
 24 20  1  0  0  0  0 
M  END
> <Name>
Pentadecafluoro-1-octanol

> <Source>
Chemidplus3DMolFile

> <Tox>
161

> <CAS>
307-30-2

$$$$

  CDK

 17 17  0  0  0  0  0  0  0  0999 V2000
    0.0000    1.2348    1.6680 F   0  0  0  0  0  0  0  0  0  0  0  0
    0.0002    1.3285    0.3138 C   0  0  0  0  0  0  0  0  0  0  0  0
    0.0003    2.6482    0.0131 F   0  0  0  0  0  0  0  0  0  0  0  0
   -1.2535    0.6710   -0.2351 C   0  0  0  0  0  0  0  0  0  0  0  0
    1.2538    0.6707   -0.2349 C   0  0  0  0  0  0  0  0  0  0  0  0
   -1.3263    0.8937   -1.5728 F   0  0  0  0  0  0  0  0  0  0  0  0
   -2.3526    1.2373    0.3158 F   0  0  0  0  0  0  0  0  0  0  0  0
   -1.2570   -0.8260    0.0205 C   0  0  0  0  0  0  0  0  0  0  0  0
    2.3529    1.2366    0.3161 F   0  0  0  0  0  0  0  0  0  0  0  0
    1.3269    0.8936   -1.5726 F   0  0  0  0  0  0  0  0  0  0  0  0
    1.2568   -0.8264    0.0205 C   0  0  0  0  0  0  0  0  0  0  0  0
   -2.3544   -1.3855   -0.5409 F   0  0  0  0  0  0  0  0  0  0  0  0
   -1.3394   -1.0520    1.3565 F   0  0  0  0  0  0  0  0  0  0  0  0
   -0.0003   -1.4876   -0.5255 C   0  0  0  0  0  0  0  0  0  0  0  0
    1.3392   -1.0527    1.3564 F   0  0  0  0  0  0  0  0  0  0  0  0
    2.3540   -1.3862   -0.5411 F   0  0  0  0  0  0  0  0  0  0  0  0
   -0.0006   -2.7980   -0.1576 F   0  0  0  0  0  0  0  0  0  0  0  0
  1  2  1  0  0  0  0 
  3  2  1  0  0  0  0 
  2  4  1  0  0  0  0 
  2  5  1  0  0  0  0 
  6  4  1  0  0  0  0 
  7  4  1  0  0  0  0 
  4  8  1  0  0  0  0 
  9  5  1  0  0  0  0 
 10  5  1  0  0  0  0 
  5 11  1  0  0  0  0 
 12  8  1  0  0  0  0 
 13  8  1  0  0  0  0 
  8 14  1  0  0  0  0 
 15 11  1  0  0  0  0 
 16 11  1  0  0  0  0 
 11 14  1  0  0  0  0 
 17 14  1  0  0  0  0 
M  END
> <Name>
Undecafluorocyclohexane

> <Source>
Chemidplus3DMolFile

> <Tox>
62

> <CAS>
308-24-7

$$$$

  CDK

 40 39  0  0  0  0  0  0  0  0999 V2000
    5.9956   -3.7742    0.0000 C   0  0  0  0  0  0  0  0  0  0  0  0
    7.1988   -3.0749    0.0000 C   0  0  0  0  0  0  0  0  0  0  0  0
    4.8026   -4.4632    0.0000 N   0  0  0  0  0  0  0  0  0  0  0  0
    5.2962   -2.5813    0.0000 F   0  0  0  0  0  0  0  0  0  0  0  0
    6.6846   -4.9774    0.0000 F   0  0  0  0  0  0  0  0  0  0  0  0
    8.3814   -2.3962    0.0000 C   0  0  0  0  0  0  0  0  0  0  0  0
    7.8878   -4.2781    0.0000 F   0  0  0  0  0  0  0  0  0  0  0  0
    6.4995   -1.8820    0.0000 F   0  0  0  0  0  0  0  0  0  0  0  0
    3.5994   -3.7742    0.0000 C   0  0  0  0  0  0  0  0  0  0  0  0
    4.8026   -5.8413    0.0000 C   0  0  0  0  0  0  0  0  0  0  0  0
    9.0807   -3.5994    0.0000 C   0  0  0  0  0  0  0  0  0  0  0  0
    7.7027   -1.1929    0.0000 F   0  0  0  0  0  0  0  0  0  0  0  0
    9.5847   -1.6969    0.0000 F   0  0  0  0  0  0  0  0  0  0  0  0
    2.3962   -3.0749    0.0000 C   0  0  0  0  0  0  0  0  0  0  0  0
    2.9001   -4.9774    0.0000 F   0  0  0  0  0  0  0  0  0  0  0  0
    4.2884   -2.5813    0.0000 F   0  0  0  0  0  0  0  0  0  0  0  0
    4.8026   -7.2296    0.0000 C   0  0  0  0  0  0  0  0  0  0  0  0
    6.1807   -5.8413    0.0000 F   0  0  0  0  0  0  0  0  0  0  0  0
    3.4143   -5.8413    0.0000 F   0  0  0  0  0  0  0  0  0  0  0  0
    8.4843   -3.9285    0.0000 F   0  0  0  0  0  0  0  0  0  0  0  0
   10.2840   -2.9001    0.0000 F   0  0  0  0  0  0  0  0  0  0  0  0
    9.7698   -4.7820    0.0000 F   0  0  0  0  0  0  0  0  0  0  0  0
    1.2032   -2.3962    0.0000 C   0  0  0  0  0  0  0  0  0  0  0  0
    3.0852   -1.8820    0.0000 F   0  0  0  0  0  0  0  0  0  0  0  0
    1.6969   -4.2781    0.0000 F   0  0  0  0  0  0  0  0  0  0  0  0
    4.8026   -8.6077    0.0000 C   0  0  0  0  0  0  0  0  0  0  0  0
    3.4143   -7.2296    0.0000 F   0  0  0  0  0  0  0  0  0  0  0  0
    6.1807   -7.2296    0.0000 F   0  0  0  0  0  0  0  0  0  0  0  0
    1.9025   -1.1929    0.0000 C   0  0  0  0  0  0  0  0  0  0  0  0
    0.5142   -3.5994    0.0000 F   0  0  0  0  0  0  0  0  0  0  0  0
    0.0000   -1.6969    0.0000 F   0  0  0  0  0  0  0  0  0  0  0  0
    3.4143   -8.6077    0.0000 C   0  0  0  0  0  0  0  0  0  0  0  0
    6.1807   -8.6077    0.0000 F   0  0  0  0  0  0  0  0  0  0  0  0
    4.8026   -9.9960    0.0000 F   0  0  0  0  0  0  0  0  0  0  0  0
    2.4990   -1.5426    0.0000 F   0  0  0  0  0  0  0  0  0  0  0  0
    0.6993   -0.4936    0.0000 F   0  0  0  0  0  0  0  0  0  0  0  0
    2.5813   -0.0000    0.0000 F   0  0  0  0  0  0  0  0  0  0  0  0
    3.4143   -7.9289    0.0000 F   0  0  0  0  0  0  0  0  0  0  0  0
    3.4143   -9.9960    0.0000 F   0  0  0  0  0  0  0  0  0  0  0  0
    2.0362   -8.6077    0.0000 F   0  0  0  0  0  0  0  0  0  0  0  0
  1  2  1  0  0  0  0 
  1  3  1  0  0  0  0 
  1  4  1  0  0  0  0 
  1  5  1  0  0  0  0 
  2  6  1  0  0  0  0 
  2  7  1  0  0  0  0 
  2  8  1  0  0  0  0 
  3  9  1  0  0  0  0 
  3 10  1  0  0  0  0 
  6 11  1  0  0  0  0 
  6 12  1  0  0  0  0 
  6 13  1  0  0  0  0 
  9 14  1  0  0  0  0 
  9 15  1  0  0  0  0 
  9 16  1  0  0  0  0 
 10 17  1  0  0  0  0 
 10 18  1  0  0  0  0 
 10 19  1  0  0  0  0 
 11 20  1  0  0  0  0 
 11 21  1  0  0  0  0 
 11 22  1  0  0  0  0 
 14 23  1  0  0  0  0 
 14 24  1  0  0  0  0 
 14 25  1  0  0  0  0 
 17 26  1  0  0  0  0 
 17 27  1  0  0  0  0 
 17 28  1  0  0  0  0 
 23 29  1  0  0  0  0 
 23 30  1  0  0  0  0 
 23 31  1  0  0  0  0 
 26 32  1  0  0  0  0 
 26 33  1  0  0  0  0 
 26 34  1  0  0  0  0 
 29 35  1  0  0  0  0 
 29 36  1  0  0  0  0 
 29 37  1  0  0  0  0 
 32 38  1  0  0  0  0 
 32 39  1  0  0  0  0 
 32 40  1  0  0  0  0 
M  END
> <Name>
HEPTACOSAFLUOROTRIBUTYLAMINE

> <Source>
DSSTox2DMolFile

> <Tox>
178

> <CAS>
311-89-7

$$$$

  CDK

 18 19  0  0  0  0  0  0  0  0999 V2000
    1.2945    3.0000    0.0000 F   0  0  0  0  0  0  0  0  0  0  0  0
    1.2945    1.5000    0.0000 C   0  0  0  0  0  0  0  0  0  0  0  0
    2.5944    0.7667    0.0000 C   0  0  0  0  0  0  0  0  0  0  0  0
    0.0056    0.7667    0.0000 C   0  0  0  0  0  0  0  0  0  0  0  0
    3.8611    1.5000    0.0000 F   0  0  0  0  0  0  0  0  0  0  0  0
    2.5944   -0.7333    0.0000 C   0  0  0  0  0  0  0  0  0  0  0  0
    0.0056   -0.7333    0.0000 C   0  0  0  0  0  0  0  0  0  0  0  0
   -1.2833    1.5000    0.0000 C   0  0  0  0  0  0  0  0  0  0  0  0
    1.2945   -1.4888    0.0000 C   0  0  0  0  0  0  0  0  0  0  0  0
    3.8611   -1.5000    0.0000 F   0  0  0  0  0  0  0  0  0  0  0  0
   -1.2833   -1.4888    0.0000 C   0  0  0  0  0  0  0  0  0  0  0  0
   -2.5944    0.7667    0.0000 C   0  0  0  0  0  0  0  0  0  0  0  0
   -1.2833    3.0000    0.0000 F   0  0  0  0  0  0  0  0  0  0  0  0
    1.2945   -2.9777    0.0000 F   0  0  0  0  0  0  0  0  0  0  0  0
   -2.5944   -0.7333    0.0000 C   0  0  0  0  0  0  0  0  0  0  0  0
   -1.2833   -3.0000    0.0000 F   0  0  0  0  0  0  0  0  0  0  0  0
   -3.8611    1.5000    0.0000 F   0  0  0  0  0  0  0  0  0  0  0  0
   -3.8611   -1.4888    0.0000 F   0  0  0  0  0  0  0  0  0  0  0  0
  1  2  1  0  0  0  0 
  2  3  2  0  0  0  0 
  2  4  1  0  0  0  0 
  3  5  1  0  0  0  0 
  3  6  1  0  0  0  0 
  4  7  2  0  0  0  0 
  4  8  1  0  0  0  0 
  6  9  2  0  0  0  0 
  6 10  1  0  0  0  0 
  7  9  1  0  0  0  0 
  7 11  1  0  0  0  0 
  8 12  2  0  0  0  0 
  8 13  1  0  0  0  0 
  9 14  1  0  0  0  0 
 11 15  2  0  0  0  0 
 11 16  1  0  0  0  0 
 12 15  1  0  0  0  0 
 12 17  1  0  0  0  0 
 15 18  1  0  0  0  0 
M  END
> <Name>
Octafluoronaphthalene

> <Source>
IndexNet2DMolFile

> <Tox>
209

> <CAS>
313-72-4

$$$$

  CDK

  9  9  0  0  0  0  0  0  0  0999 V2000
    0.0000    0.0000    0.0000 C   0  0  0  0  0  0  0  0  0  0  0  0
    0.4998    0.8496    0.0000 O   0  0  0  0  0  0  0  0  0  0  0  0
    1.4994    0.8496    0.0000 C   0  0  0  0  0  0  0  0  0  0  0  0
    1.9992    1.7493    0.0000 C   0  0  0  0  0  0  0  0  0  0  0  0
    1.9992    0.0000    0.0000 C   0  0  0  0  0  0  0  0  0  0  0  0
    1.4994    2.5989    0.0000 F   0  0  0  0  0  0  0  0  0  0  0  0
    2.9988    1.7493    0.0000 C   0  0  0  0  0  0  0  0  0  0  0  0
    2.9988    0.0000    0.0000 C   0  0  0  0  0  0  0  0  0  0  0  0
    3.4985    0.8496    0.0000 C   0  0  0  0  0  0  0  0  0  0  0  0
  1  2  1  0  0  0  0 
  2  3  1  0  0  0  0 
  4  3  2  0  0  0  0 
  3  5  1  0  0  0  0 
  4  6  1  0  0  0  0 
  7  4  1  0  0  0  0 
  5  8  2  0  0  0  0 
  9  7  2  0  0  0  0 
  8  9  1  0  0  0  0 
M  END
> <Name>
2-FLUOROANISOLE

> <Source>
NIST2DMolFile

> <Tox>
154.5

> <CAS>
321-28-8

$$$$

  CDK

 10 10  0  0  0  0  0  0  0  0999 V2000
    0.0000    0.0000    0.0000 N   0  0  0  0  0  0  0  0  0  0  0  0
   -0.5800    0.2400    0.9800 C   0  0  0  0  0  0  0  0  0  0  0  0
   -1.3200    0.5400    2.2000 C   0  0  0  0  0  0  0  0  0  0  0  0
   -2.1200    1.7800    2.1000 C   0  0  0  0  0  0  0  0  0  0  0  0
   -1.5000    3.0200    1.9400 C   0  0  0  0  0  0  0  0  0  0  0  0
   -3.5200    1.7200    2.1800 C   0  0  0  0  0  0  0  0  0  0  0  0
   -2.2600    4.2000    1.8400 C   0  0  0  0  0  0  0  0  0  0  0  0
   -0.1600    3.1000    1.8800 F   0  0  0  0  0  0  0  0  0  0  0  0
   -4.3000    2.8800    2.0800 C   0  0  0  0  0  0  0  0  0  0  0  0
   -3.6600    4.1200    1.9200 C   0  0  0  0  0  0  0  0  0  0  0  0
  1  2  3  0  0  0  0 
  2  3  1  0  0  0  0 
  3  4  1  0  0  0  0 
  4  5  2  0  0  0  0 
  4  6  1  0  0  0  0 
  5  7  1  0  0  0  0 
  5  8  1  0  0  0  0 
  9  6  2  0  0  0  0 
  7 10  2  0  0  0  0 
 10  9  1  0  0  0  0 
M  END
> <Name>
Benzeneacetonitrile, 2-fluoro-

> <Source>
NIH3DMolFile

> <Tox>
232

> <CAS>
326-62-5

$$$$

  CDK

 11 11  0  0  0  0  0  0  0  0999 V2000
   -0.4695   -0.2775    0.0000 C   0  0  0  0  0  0  0  0  0  0  0  0
   -0.2257   -1.0657    0.0000 O   0  0  0  0  0  0  0  0  0  0  0  0
    0.2450    0.1350    0.0000 C   0  0  0  0  0  0  0  0  0  0  0  0
   -1.1840    0.1350    0.0000 C   0  0  0  0  0  0  0  0  0  0  0  0
    0.5788   -1.2486    0.0000 P   0  0  0  0  0  0  0  0  0  0  0  0
    0.2450    0.9600    0.0000 C   0  0  0  0  0  0  0  0  0  0  0  0
   -1.1840    0.9600    0.0000 C   0  0  0  0  0  0  0  0  0  0  0  0
    1.1394   -0.6434    0.0000 O   0  0  0  0  0  0  0  0  0  0  0  0
    0.3958   -2.0531    0.0000 F   0  0  0  0  0  0  0  0  0  0  0  0
    1.3832   -1.4316    0.0000 C   0  0  0  0  0  0  0  0  0  0  0  0
   -0.4695    1.3725    0.0000 C   0  0  0  0  0  0  0  0  0  0  0  0
  1  2  1  0  0  0  0 
  1  3  1  0  0  0  0 
  1  4  1  0  0  0  0 
  2  5  1  0  0  0  0 
  3  6  1  0  0  0  0 
  7  4  1  0  0  0  0 
  5  8  2  0  0  0  0 
  5  9  1  0  0  0  0 
  5 10  1  0  0  0  0 
  6 11  1  0  0  0  0 
 11  7  1  0  0  0  0 
M  END
> <Name>
Cyclohexyl methylphosphonofluoridate

> <Source>
Smiles

> <Tox>
239

> <CAS>
329-99-7

$$$$

  CDK

 11 10  0  0  0  0  0  0  0  0999 V2000
    1.7441    0.4104    0.0000 C   0  0  0  0  0  0  0  0  0  0  0  0
    2.6161    0.8720    0.0000 O   0  0  0  0  0  0  0  0  0  0  0  0
    0.8720    0.8720    0.0000 C   0  0  0  0  0  0  0  0  0  0  0  0
    3.5394    0.4104    0.0000 C   0  0  0  0  0  0  0  0  0  0  0  0
    0.3591    0.0000    0.0000 F   0  0  0  0  0  0  0  0  0  0  0  0
    0.0000    1.3850    0.0000 F   0  0  0  0  0  0  0  0  0  0  0  0
    1.3850    1.7441    0.0000 F   0  0  0  0  0  0  0  0  0  0  0  0
    4.3602    0.9233    0.0000 C   0  0  0  0  0  0  0  0  0  0  0  0
    3.8472    1.7441    0.0000 F   0  0  0  0  0  0  0  0  0  0  0  0
    5.2322    1.4363    0.0000 F   0  0  0  0  0  0  0  0  0  0  0  0
    4.8731    0.0513    0.0000 F   0  0  0  0  0  0  0  0  0  0  0  0
  1  2  1  0  0  0  0 
  1  3  1  0  0  0  0 
  2  4  1  0  0  0  0 
  3  5  1  0  0  0  0 
  3  6  1  0  0  0  0 
  3  7  1  0  0  0  0 
  4  8  1  0  0  0  0 
  8  9  1  0  0  0  0 
  8 10  1  0  0  0  0 
  8 11  1  0  0  0  0 
M  END
> <Name>
Flurothyl

> <Source>
NIST2DMolFile

> <Tox>
63.9

> <CAS>
333-36-8

$$$$

  CDK

  3  2  0  0  0  0  0  0  0  0999 V2000
    1.3300   -0.0000    0.0000 N   0  0  0  0  0  0  0  0  0  0  0  0
    0.0000   -0.0000    0.0000 N   0  0  0  0  0  0  0  0  0  0  0  0
    2.6600   -0.0000    0.0000 C   0  0  0  0  0  0  0  0  0  0  0  0
  1  2  2  0  0  0  0 
  1  3  2  0  0  0  0 
M  CHG  1   1   1
M  CHG  1   2  -1
M  END
> <Name>
DIAZOMETHANE

> <Source>
DSSTox2DMolFile

> <Tox>
-23

> <CAS>
334-88-3

$$$$

  CDK

 10 10  0  0  0  0  0  0  0  0999 V2000
    5.9822   -1.1546    0.0000 F   0  0  0  0  0  0  0  0  0  0  0  0
    4.6542   -1.1546    0.0000 C   0  0  0  0  0  0  0  0  0  0  0  0
    3.9901   -2.3031    0.0000 C   0  0  0  0  0  0  0  0  0  0  0  0
    3.9901   -0.0000    0.0000 C   0  0  0  0  0  0  0  0  0  0  0  0
    2.6561   -2.3031    0.0000 C   0  0  0  0  0  0  0  0  0  0  0  0
    2.6561   -0.0000    0.0000 C   0  0  0  0  0  0  0  0  0  0  0  0
    1.9921   -1.1546    0.0000 C   0  0  0  0  0  0  0  0  0  0  0  0
    0.6640   -1.1546    0.0000 N   0  0  0  0  0  0  0  0  0  0  0  0
    0.0000   -2.3031    0.0000 O   0  0  0  0  0  0  0  0  0  0  0  0
    0.0000   -0.0000    0.0000 O   0  0  0  0  0  0  0  0  0  0  0  0
  1  2  1  0  0  0  0 
  2  3  2  0  0  0  0 
  2  4  1  0  0  0  0 
  3  5  1  0  0  0  0 
  6  4  2  0  0  0  0 
  5  7  2  0  0  0  0 
  7  6  1  0  0  0  0 
  7  8  1  0  0  0  0 
  8  9  2  0  0  0  0 
  8 10  1  0  0  0  0 
M  CHG  1   8   1
M  CHG  1  10  -1
M  END
> <Name>
4-FLUORONITROBENZENE

> <Source>
DSSTox2DMolFile

> <Tox>
205

> <CAS>
350-46-9

$$$$

  CDK

  5  4  0  0  0  0  0  0  0  0999 V2000
    3.4783   -0.7085    0.0000 C   0  0  0  0  0  0  0  0  0  0  0  0
    4.6009   -0.0000    0.0000 C   0  0  0  0  0  0  0  0  0  0  0  0
    2.2912   -0.0828    0.0000 S   0  0  0  0  0  0  0  0  0  0  0  0
    1.1686   -0.7867    0.0000 C   0  0  0  0  0  0  0  0  0  0  0  0
    0.0000   -0.1610    0.0000 C   0  0  0  0  0  0  0  0  0  0  0  0
  1  2  1  0  0  0  0 
  1  3  1  0  0  0  0 
  4  3  1  0  0  0  0 
  4  5  1  0  0  0  0 
M  END
> <Name>
DIETHYLSULFIDE

> <Source>
DSSTox2DMolFile

> <Tox>
92.1

> <CAS>
352-93-2

$$$$

  CDK

  4  3  0  0  0  0  0  0  0  0999 V2000
    0.8456    0.9948    0.0000 C   0  0  0  0  0  0  0  0  0  0  0  0
    0.0000    1.4922    0.0000 F   0  0  0  0  0  0  0  0  0  0  0  0
    1.7409    1.4922    0.0000 F   0  0  0  0  0  0  0  0  0  0  0  0
    0.8456    0.0000    0.0000 O   0  0  0  0  0  0  0  0  0  0  0  0
  1  2  1  0  0  0  0 
  1  3  1  0  0  0  0 
  1  4  2  0  0  0  0 
M  END
> <Name>
CARBONIC DIFLUORIDE

> <Source>
NIST2DMolFile

> <Tox>
-84.5

> <CAS>
353-50-4

$$$$

  CDK

  5  4  0  0  0  0  0  0  0  0999 V2000
    1.0000    2.0000    0.0000 Br  0  0  0  0  0  0  0  0  0  0  0  0
    1.0000    1.0000    0.0000 C   0  0  0  0  0  0  0  0  0  0  0  0
    2.0000    1.0000    0.0000 Br  0  0  0  0  0  0  0  0  0  0  0  0
    0.0000    1.0000    0.0000 Br  0  0  0  0  0  0  0  0  0  0  0  0
    1.0000    0.0000    0.0000 F   0  0  0  0  0  0  0  0  0  0  0  0
  1  2  1  0  0  0  0 
  2  3  1  0  0  0  0 
  2  4  1  0  0  0  0 
  2  5  1  0  0  0  0 
M  END
> <Name>
Methane, tribromofluoro-

> <Source>
NIST2DMolFile

> <Tox>
108

> <CAS>
353-54-8

$$$$

  CDK

  5  4  0  0  0  0  0  0  0  0999 V2000
   -1.6126   -0.9196   -0.4445 Br  0  0  0  0  0  0  0  0  0  0  0  0
    0.0000    0.0304    0.0941 C   0  0  0  0  0  0  0  0  0  0  0  0
    1.6128   -0.9193   -0.4445 Br  0  0  0  0  0  0  0  0  0  0  0  0
   -0.0002    1.6378   -0.6517 Cl  0  0  0  0  0  0  0  0  0  0  0  0
    0.0000    0.1708    1.4465 F   0  0  0  0  0  0  0  0  0  0  0  0
  1  2  1  0  0  0  0 
  3  2  1  0  0  0  0 
  4  2  1  0  0  0  0 
  5  2  1  0  0  0  0 
M  END
> <Name>
dibromochlorofluoromethane

> <Source>
Chemidplus3DMolFile

> <Tox>
80.3

> <CAS>
353-55-9

$$$$

  CDK

  5  4  0  0  0  0  0  0  0  0999 V2000
    1.8477   -0.0004   -0.3500 Br  0  0  0  0  0  0  0  0  0  0  0  0
   -0.0487    0.0000    0.0835 C   0  0  0  0  0  0  0  0  0  0  0  0
   -0.8001    1.4572   -0.5838 Cl  0  0  0  0  0  0  0  0  0  0  0  0
   -0.8008   -1.4567   -0.5841 Cl  0  0  0  0  0  0  0  0  0  0  0  0
   -0.1981   -0.0002    1.4344 F   0  0  0  0  0  0  0  0  0  0  0  0
  1  2  1  0  0  0  0 
  3  2  1  0  0  0  0 
  4  2  1  0  0  0  0 
  5  2  1  0  0  0  0 
M  END
> <Name>
METHANE, BROMODICHLOROFLUORO-

> <Source>
Chemidplus3DMolFile

> <Tox>
52

> <CAS>
353-58-2

$$$$

  CDK

  6  5  0  0  0  0  0  0  0  0999 V2000
    1.7190    1.0112    0.0000 C   0  0  0  0  0  0  0  0  0  0  0  0
    2.5786    1.5168    0.0000 Cl  0  0  0  0  0  0  0  0  0  0  0  0
    1.7190    0.0000    0.0000 Cl  0  0  0  0  0  0  0  0  0  0  0  0
    2.5786    0.5056    0.0000 F   0  0  0  0  0  0  0  0  0  0  0  0
    0.8595    1.5168    0.0000 C   0  0  0  0  0  0  0  0  0  0  0  0
    0.0000    2.0224    0.0000 N   0  0  0  0  0  0  0  0  0  0  0  0
  1  2  1  0  0  0  0 
  1  3  1  0  0  0  0 
  1  4  1  0  0  0  0 
  1  5  1  0  0  0  0 
  5  6  3  0  0  0  0 
M  END
> <Name>
ACETONITRILE, DICHLOROFLUORO-

> <Source>
NIST2DMolFile

> <Tox>
33

> <CAS>
353-82-2

$$$$

  CDK

  7  6  0  0  0  0  0  0  0  0999 V2000
    0.8612   -0.0011    0.4096 C   0  0  0  0  0  0  0  0  0  0  0  0
   -0.6536   -0.0006    0.7073 C   0  0  0  0  0  0  0  0  0  0  0  0
    1.0793    0.0021   -1.3993 Cl  0  0  0  0  0  0  0  0  0  0  0  0
    1.4941    1.0616    0.9532 F   0  0  0  0  0  0  0  0  0  0  0  0
    1.4931   -1.0664    0.9493 F   0  0  0  0  0  0  0  0  0  0  0  0
   -1.3640   -1.4258   -0.0262 Cl  0  0  0  0  0  0  0  0  0  0  0  0
   -1.3623    1.4269   -0.0237 Cl  0  0  0  0  0  0  0  0  0  0  0  0
  1  2  1  0  0  0  0 
  1  3  1  0  0  0  0 
  1  4  1  0  0  0  0 
  1  5  1  0  0  0  0 
  2  6  1  0  0  0  0 
  2  7  1  0  0  0  0 
M  END
> <Name>
1,1-Difluoro-1,2,2-trichloroethane

> <Source>
DougDB3DMolFile

> <Tox>
71.9

> <CAS>
354-21-2

$$$$

  CDK

  8  7  0  0  0  0  0  0  0  0999 V2000
    1.0051    2.0000    0.0000 Cl  0  0  0  0  0  0  0  0  0  0  0  0
    1.0000    1.0000    0.0000 C   0  0  0  0  0  0  0  0  0  0  0  0
    0.9950    0.0000    0.0000 F   0  0  0  0  0  0  0  0  0  0  0  0
    2.0000    1.0000    0.0000 C   0  0  0  0  0  0  0  0  0  0  0  0
    0.0000    1.0051    0.0000 Cl  0  0  0  0  0  0  0  0  0  0  0  0
    1.9950    2.0000    0.0000 Cl  0  0  0  0  0  0  0  0  0  0  0  0
    3.0000    1.0000    0.0000 Cl  0  0  0  0  0  0  0  0  0  0  0  0
    1.9950    0.0000    0.0000 Cl  0  0  0  0  0  0  0  0  0  0  0  0
  1  2  1  0  0  0  0 
  2  3  1  0  0  0  0 
  2  4  1  0  0  0  0 
  2  5  1  0  0  0  0 
  4  6  1  0  0  0  0 
  4  7  1  0  0  0  0 
  4  8  1  0  0  0  0 
M  END
> <Name>
pentachlorofluoroethane

> <Source>
NIST2DMolFile

> <Tox>
135

> <CAS>
354-56-3

$$$$

  CDK

  8  7  0  0  0  0  0  0  0  0999 V2000
    1.3992    1.2127    0.0000 C   0  0  0  0  0  0  0  0  0  0  0  0
    2.7984    1.2127    0.0000 C   0  0  0  0  0  0  0  0  0  0  0  0
    0.6996    0.0000    0.0000 F   0  0  0  0  0  0  0  0  0  0  0  0
    0.6996    2.4253    0.0000 F   0  0  0  0  0  0  0  0  0  0  0  0
    0.0000    1.2127    0.0000 I   0  0  0  0  0  0  0  0  0  0  0  0
    3.4981    0.0000    0.0000 F   0  0  0  0  0  0  0  0  0  0  0  0
    3.4981    2.4253    0.0000 F   0  0  0  0  0  0  0  0  0  0  0  0
    4.1977    1.2127    0.0000 I   0  0  0  0  0  0  0  0  0  0  0  0
  1  2  1  0  0  0  0 
  1  3  1  0  0  0  0 
  1  4  1  0  0  0  0 
  1  5  1  0  0  0  0 
  2  6  1  0  0  0  0 
  2  7  1  0  0  0  0 
  2  8  1  0  0  0  0 
M  END
> <Name>
1,1,2,2-Tetrafluoro-1,2-diiodoethane

> <Source>
IndexNet2DMolFile

> <Tox>
112

> <CAS>
354-65-4

$$$$

  CDK

 23 22  0  0  0  0  0  0  0  0999 V2000
    2.9994   -1.5137   -3.5750 S   0  0  0  0  0  0  0  0  0  0  0  0
    2.5064   -0.7257   -4.9142 O   0  0  0  0  0  0  0  0  0  0  0  0
    3.0506   -2.9314   -3.8668 O   0  0  0  0  0  0  0  0  0  0  0  0
    4.1295   -0.8043   -3.0117 O   0  0  0  0  0  0  0  0  0  0  0  0
    1.5517   -1.1746   -2.5817 C   0  0  0  0  0  0  0  0  0  0  0  0
    0.4763   -1.8078   -3.1199 F   0  0  0  0  0  0  0  0  0  0  0  0
    1.2827    0.1544   -2.6301 F   0  0  0  0  0  0  0  0  0  0  0  0
    1.7260   -1.6193   -1.1371 C   0  0  0  0  0  0  0  0  0  0  0  0
    2.0001   -2.9563   -1.1296 F   0  0  0  0  0  0  0  0  0  0  0  0
    2.8182   -1.0132   -0.6071 F   0  0  0  0  0  0  0  0  0  0  0  0
    0.5305   -1.4095   -0.2172 C   0  0  0  0  0  0  0  0  0  0  0  0
    0.8412   -1.9459    0.9968 F   0  0  0  0  0  0  0  0  0  0  0  0
   -0.5032   -2.1650   -0.6917 F   0  0  0  0  0  0  0  0  0  0  0  0
    0.0000    0.0000    0.0000 C   0  0  0  0  0  0  0  0  0  0  0  0
   -0.4688    0.4769   -1.1866 F   0  0  0  0  0  0  0  0  0  0  0  0
   -1.0964   -0.0983    0.8083 F   0  0  0  0  0  0  0  0  0  0  0  0
    0.9255    1.0502    0.5941 C   0  0  0  0  0  0  0  0  0  0  0  0
    0.2230    2.2174    0.6715 F   0  0  0  0  0  0  0  0  0  0  0  0
    1.9570    1.2928   -0.2528 F   0  0  0  0  0  0  0  0  0  0  0  0
    1.4784    0.7589    1.9674 C   0  0  0  0  0  0  0  0  0  0  0  0
    2.2661    1.7548    2.4196 F   0  0  0  0  0  0  0  0  0  0  0  0
    0.4704    0.6089    2.8565 F   0  0  0  0  0  0  0  0  0  0  0  0
    2.2018   -0.3806    1.9742 F   0  0  0  0  0  0  0  0  0  0  0  0
  1  2  1  0  0  0  0 
  1  3  2  0  0  0  0 
  1  4  2  0  0  0  0 
  1  5  1  0  0  0  0 
  6  5  1  0  0  0  0 
  7  5  1  0  0  0  0 
  8  5  1  0  0  0  0 
  9  8  1  0  0  0  0 
 10  8  1  0  0  0  0 
 11  8  1  0  0  0  0 
 12 11  1  0  0  0  0 
 13 11  1  0  0  0  0 
 11 14  1  0  0  0  0 
 15 14  1  0  0  0  0 
 16 14  1  0  0  0  0 
 14 17  1  0  0  0  0 
 18 17  1  0  0  0  0 
 19 17  1  0  0  0  0 
 17 20  1  0  0  0  0 
 21 20  1  0  0  0  0 
 22 20  1  0  0  0  0 
 23 20  1  0  0  0  0 
M  END
> <Name>
Perfluorohexane-1-sulfonic Acid

> <Source>
Chemidplus3DMolFile

> <Tox>
238.5

> <CAS>
355-46-4

$$$$

  CDK

 14 13  0  0  0  0  0  0  0  0999 V2000
    3.4365    1.8926    0.0000 C   0  0  0  0  0  0  0  0  0  0  0  0
    2.5899    1.3945    0.0000 C   0  0  0  0  0  0  0  0  0  0  0  0
    4.3330    2.3906    0.0000 C   0  0  0  0  0  0  0  0  0  0  0  0
    2.9385    2.7393    0.0000 F   0  0  0  0  0  0  0  0  0  0  0  0
    3.9346    0.9961    0.0000 F   0  0  0  0  0  0  0  0  0  0  0  0
    1.7432    0.8965    0.0000 C   0  0  0  0  0  0  0  0  0  0  0  0
    3.0879    0.4981    0.0000 F   0  0  0  0  0  0  0  0  0  0  0  0
    2.0918    2.2412    0.0000 F   0  0  0  0  0  0  0  0  0  0  0  0
    4.3330    3.3867    0.0000 F   0  0  0  0  0  0  0  0  0  0  0  0
    5.1797    1.8926    0.0000 F   0  0  0  0  0  0  0  0  0  0  0  0
    0.8467    0.3984    0.0000 C   0  0  0  0  0  0  0  0  0  0  0  0
    2.2412    0.0000    0.0000 F   0  0  0  0  0  0  0  0  0  0  0  0
    1.2451    1.7432    0.0000 F   0  0  0  0  0  0  0  0  0  0  0  0
    0.0000    0.8965    0.0000 O   0  0  0  0  0  0  0  0  0  0  0  0
  1  2  1  0  0  0  0 
  1  3  1  0  0  0  0 
  1  4  1  0  0  0  0 
  1  5  1  0  0  0  0 
  2  6  1  0  0  0  0 
  2  7  1  0  0  0  0 
  2  8  1  0  0  0  0 
  3  9  1  0  0  0  0 
  3 10  1  0  0  0  0 
  6 11  1  0  0  0  0 
  6 12  1  0  0  0  0 
  6 13  1  0  0  0  0 
 11 14  1  0  0  0  0 
M  END
> <Name>
1-Pentanol, 2,2,3,3,4,4,5,5-octafluoro-

> <Source>
NIST2DMolFile

> <Tox>
140.5

> <CAS>
355-80-6

$$$$

  CDK

 12 11  0  0  0  0  0  0  0  0999 V2000
    2.6250    2.0193    0.0000 C   0  0  0  0  0  0  0  0  0  0  0  0
    1.7164    1.5144    0.0000 C   0  0  0  0  0  0  0  0  0  0  0  0
    3.4832    2.5746    0.0000 N   0  0  0  0  0  0  0  0  0  0  0  0
    2.1202    2.8774    0.0000 F   0  0  0  0  0  0  0  0  0  0  0  0
    3.1299    1.1611    0.0000 F   0  0  0  0  0  0  0  0  0  0  0  0
    0.8582    1.0096    0.0000 N   0  0  0  0  0  0  0  0  0  0  0  0
    2.2212    0.6563    0.0000 F   0  0  0  0  0  0  0  0  0  0  0  0
    1.2116    2.3726    0.0000 F   0  0  0  0  0  0  0  0  0  0  0  0
    3.4832    3.5337    0.0000 O   0  0  0  0  0  0  0  0  0  0  0  0
    4.3414    2.0697    0.0000 O   0  0  0  0  0  0  0  0  0  0  0  0
    0.8582    0.0000    0.0000 O   0  0  0  0  0  0  0  0  0  0  0  0
    0.0000    1.5144    0.0000 O   0  0  0  0  0  0  0  0  0  0  0  0
  1  2  1  0  0  0  0 
  1  3  1  0  0  0  0 
  1  4  1  0  0  0  0 
  1  5  1  0  0  0  0 
  2  6  1  0  0  0  0 
  2  7  1  0  0  0  0 
  2  8  1  0  0  0  0 
  3  9  2  0  0  0  0 
  3 10  2  0  0  0  0 
  6 11  2  0  0  0  0 
  6 12  2  0  0  0  0 
M  END
> <Name>
ETHANE, 1,1,2,2-TETRAFLUORO-1,2-DINITRO-

> <Source>
NIST2DMolFile

> <Tox>
58.5

> <CAS>
356-16-1

$$$$

  CDK

 14 13  0  0  0  0  0  0  0  0999 V2000
    0.8463    1.4935    0.0000 C   0  0  0  0  0  0  0  0  0  0  0  0
    0.8463    2.4891    0.0000 F   0  0  0  0  0  0  0  0  0  0  0  0
    1.6926    0.9956    0.0000 C   0  0  0  0  0  0  0  0  0  0  0  0
    0.0000    0.9459    0.0000 F   0  0  0  0  0  0  0  0  0  0  0  0
    0.5476    0.4978    0.0000 F   0  0  0  0  0  0  0  0  0  0  0  0
    1.6926    0.0000    0.0000 F   0  0  0  0  0  0  0  0  0  0  0  0
    2.5389    1.4935    0.0000 C   0  0  0  0  0  0  0  0  0  0  0  0
    1.4437    1.9415    0.0000 F   0  0  0  0  0  0  0  0  0  0  0  0
    3.4349    0.9956    0.0000 C   0  0  0  0  0  0  0  0  0  0  0  0
    2.5389    2.4891    0.0000 F   0  0  0  0  0  0  0  0  0  0  0  0
    2.8376    0.4978    0.0000 F   0  0  0  0  0  0  0  0  0  0  0  0
    4.2812    1.4935    0.0000 O   0  0  0  0  0  0  0  0  0  0  0  0
    3.4349    0.0000    0.0000 O   0  0  0  0  0  0  0  0  0  0  0  0
    5.1275    0.9956    0.0000 C   0  0  0  0  0  0  0  0  0  0  0  0
  1  2  1  0  0  0  0 
  1  3  1  0  0  0  0 
  1  4  1  0  0  0  0 
  1  5  1  0  0  0  0 
  3  6  1  0  0  0  0 
  3  7  1  0  0  0  0 
  3  8  1  0  0  0  0 
  7  9  1  0  0  0  0 
  7 10  1  0  0  0  0 
  7 11  1  0  0  0  0 
  9 12  1  0  0  0  0 
  9 13  2  0  0  0  0 
 12 14  1  0  0  0  0 
M  END
> <Name>
Butanoic acid, heptafluoro-, methyl ester

> <Source>
NIST2DMolFile

> <Tox>
80

> <CAS>
356-24-1

$$$$

  CDK

  8  7  0  0  0  0  0  0  0  0999 V2000
    2.4253    3.4981    0.0000 F   0  0  0  0  0  0  0  0  0  0  0  0
    2.4253    2.0988    0.0000 Si  0  0  0  0  0  0  0  0  0  0  0  0
    1.2127    1.3992    0.0000 C   0  0  0  0  0  0  0  0  0  0  0  0
    3.6380    1.3992    0.0000 C   0  0  0  0  0  0  0  0  0  0  0  0
    2.4253    0.6996    0.0000 C   0  0  0  0  0  0  0  0  0  0  0  0
    0.0000    2.0988    0.0000 C   0  0  0  0  0  0  0  0  0  0  0  0
    4.8506    2.0988    0.0000 C   0  0  0  0  0  0  0  0  0  0  0  0
    1.2127    0.0000    0.0000 C   0  0  0  0  0  0  0  0  0  0  0  0
  1  2  1  0  0  0  0 
  2  3  1  0  0  0  0 
  2  4  1  0  0  0  0 
  2  5  1  0  0  0  0 
  3  6  1  0  0  0  0 
  4  7  1  0  0  0  0 
  5  8  1  0  0  0  0 
M  END
> <Name>
TRIETHYLFLUOROSILANE

> <Source>
IndexNet2DMolFile

> <Tox>
110

> <CAS>
358-43-0

$$$$

  CDK

  5  4  0  0  0  0  0  0  0  0999 V2000
    1.5785    0.8879    0.0000 C   0  0  0  0  0  0  0  0  0  0  0  0
    0.5426    0.8879    0.0000 C   0  0  0  0  0  0  0  0  0  0  0  0
    2.0225    0.0000    0.0000 Cl  0  0  0  0  0  0  0  0  0  0  0  0
    0.0000    0.0000    0.0000 F   0  0  0  0  0  0  0  0  0  0  0  0
    0.0493    1.6772    0.0000 F   0  0  0  0  0  0  0  0  0  0  0  0
  1  2  2  0  0  0  0 
  1  3  1  0  0  0  0 
  2  4  1  0  0  0  0 
  2  5  1  0  0  0  0 
M  END
> <Name>
CHLORO-1,1-DIFLUOROETHYLENE

> <Source>
NIST2DMolFile

> <Tox>
-18.5

> <CAS>
359-10-4

$$$$

  CDK

  6  5  0  0  0  0  0  0  0  0999 V2000
    0.0000    0.0000    0.0000 F   0  0  0  0  0  0  0  0  0  0  0  0
    0.5198    0.8837    0.0000 C   0  0  0  0  0  0  0  0  0  0  0  0
    1.5076    0.8837    0.0000 C   0  0  0  0  0  0  0  0  0  0  0  0
    0.0000    1.7155    0.0000 F   0  0  0  0  0  0  0  0  0  0  0  0
    2.0274    1.7155    0.0000 F   0  0  0  0  0  0  0  0  0  0  0  0
    2.0274    0.0000    0.0000 I   0  0  0  0  0  0  0  0  0  0  0  0
  1  2  1  0  0  0  0 
  2  3  2  0  0  0  0 
  2  4  1  0  0  0  0 
  3  5  1  0  0  0  0 
  3  6  1  0  0  0  0 
M  END
> <Name>
ETHENE, TRIFLUOROIODO-

> <Source>
NIST2DMolFile

> <Tox>
30

> <CAS>
359-37-5

$$$$

  CDK

 22 21  0  0  0  0  0  0  0  0999 V2000
    1.2541   -1.0946   -1.1869 F   0  0  0  0  0  0  0  0  0  0  0  0
    1.4276   -0.5791    0.0629 C   0  0  0  0  0  0  0  0  0  0  0  0
    1.7410   -1.6345    0.8747 F   0  0  0  0  0  0  0  0  0  0  0  0
    0.1696    0.0223    0.5432 N   0  0  0  0  0  0  0  0  0  0  0  0
    2.6831    0.2728    0.0353 C   0  0  0  0  0  0  0  0  0  0  0  0
   -0.2563    1.1861   -0.2564 C   0  0  0  0  0  0  0  0  0  0  0  0
   -0.9054   -0.9678    0.7399 C   0  0  0  0  0  0  0  0  0  0  0  0
    2.9740    0.7051    1.2854 F   0  0  0  0  0  0  0  0  0  0  0  0
    3.7609   -0.4078   -0.4041 F   0  0  0  0  0  0  0  0  0  0  0  0
    2.5224    1.3651   -0.7410 F   0  0  0  0  0  0  0  0  0  0  0  0
    0.7176    2.1436   -0.1809 F   0  0  0  0  0  0  0  0  0  0  0  0
   -0.3542    0.8414   -1.5714 F   0  0  0  0  0  0  0  0  0  0  0  0
   -1.5364    1.9068    0.1234 C   0  0  0  0  0  0  0  0  0  0  0  0
   -0.4823   -1.8906    1.6567 F   0  0  0  0  0  0  0  0  0  0  0  0
   -2.0036   -0.3671    1.2791 F   0  0  0  0  0  0  0  0  0  0  0  0
   -1.3711   -1.7892   -0.4480 C   0  0  0  0  0  0  0  0  0  0  0  0
   -1.4735    2.3981    1.3790 F   0  0  0  0  0  0  0  0  0  0  0  0
   -1.7399    2.9546   -0.7105 F   0  0  0  0  0  0  0  0  0  0  0  0
   -2.6238    1.1151    0.0293 F   0  0  0  0  0  0  0  0  0  0  0  0
   -0.3370   -2.5106   -0.9428 F   0  0  0  0  0  0  0  0  0  0  0  0
   -2.3405   -2.6677   -0.1219 F   0  0  0  0  0  0  0  0  0  0  0  0
   -1.8262   -1.0019   -1.4453 F   0  0  0  0  0  0  0  0  0  0  0  0
  1  2  1  0  0  0  0 
  3  2  1  0  0  0  0 
  4  2  1  0  0  0  0 
  2  5  1  0  0  0  0 
  4  6  1  0  0  0  0 
  4  7  1  0  0  0  0 
  8  5  1  0  0  0  0 
  9  5  1  0  0  0  0 
 10  5  1  0  0  0  0 
 11  6  1  0  0  0  0 
 12  6  1  0  0  0  0 
  6 13  1  0  0  0  0 
 14  7  1  0  0  0  0 
 15  7  1  0  0  0  0 
  7 16  1  0  0  0  0 
 17 13  1  0  0  0  0 
 18 13  1  0  0  0  0 
 19 13  1  0  0  0  0 
 20 16  1  0  0  0  0 
 21 16  1  0  0  0  0 
 22 16  1  0  0  0  0 
M  END
> <Name>
Perfluoro-tri-n-ethylamine

> <Source>
Chemidplus3DMolFile

> <Tox>
70.3

> <CAS>
359-70-6

$$$$

  CDK

 12 11  0  0  0  0  0  0  0  0999 V2000
    1.0682    1.8312    0.0000 C   0  0  0  0  0  0  0  0  0  0  0  0
    1.0682    2.8486    0.0000 F   0  0  0  0  0  0  0  0  0  0  0  0
    0.0000    1.8312    0.0000 F   0  0  0  0  0  0  0  0  0  0  0  0
    1.0682    0.8647    0.0000 F   0  0  0  0  0  0  0  0  0  0  0  0
    2.0856    1.8312    0.0000 C   0  0  0  0  0  0  0  0  0  0  0  0
    2.5434    2.7468    0.0000 F   0  0  0  0  0  0  0  0  0  0  0  0
    2.4925    1.0173    0.0000 C   0  0  0  0  0  0  0  0  0  0  0  0
    2.0347    0.1526    0.0000 F   0  0  0  0  0  0  0  0  0  0  0  0
    3.5099    1.0173    0.0000 C   0  0  0  0  0  0  0  0  0  0  0  0
    3.5099    1.9838    0.0000 F   0  0  0  0  0  0  0  0  0  0  0  0
    3.5099    0.0000    0.0000 F   0  0  0  0  0  0  0  0  0  0  0  0
    4.5272    1.0173    0.0000 F   0  0  0  0  0  0  0  0  0  0  0  0
  1  2  1  0  0  0  0 
  1  3  1  0  0  0  0 
  1  4  1  0  0  0  0 
  1  5  1  0  0  0  0 
  5  6  1  0  0  0  0 
  5  7  2  0  0  0  0 
  7  8  1  0  0  0  0 
  7  9  1  0  0  0  0 
  9 10  1  0  0  0  0 
  9 11  1  0  0  0  0 
  9 12  1  0  0  0  0 
M  END
> <Name>
OCTAFLUORO-2-BUTENE

> <Source>
NIST2DMolFile

> <Tox>
1.5

> <CAS>
360-89-4

$$$$

  CDK

  8  8  0  0  0  0  0  0  0  0999 V2000
    0.0000    0.8701    0.0000 C   0  0  0  0  0  0  0  0  0  0  0  0
    0.5118    1.6889    0.0000 C   0  0  0  0  0  0  0  0  0  0  0  0
    0.5118    0.0000    0.0000 C   0  0  0  0  0  0  0  0  0  0  0  0
    1.5354    1.7401    0.0000 C   0  0  0  0  0  0  0  0  0  0  0  0
    1.5354    0.0000    0.0000 C   0  0  0  0  0  0  0  0  0  0  0  0
    2.0472    0.9212    0.0000 C   0  0  0  0  0  0  0  0  0  0  0  0
    1.9960    2.6102    0.0000 F   0  0  0  0  0  0  0  0  0  0  0  0
    3.0196    0.9212    0.0000 F   0  0  0  0  0  0  0  0  0  0  0  0
  1  2  2  0  0  0  0 
  3  1  1  0  0  0  0 
  2  4  1  0  0  0  0 
  5  3  2  0  0  0  0 
  4  6  2  0  0  0  0 
  4  7  1  0  0  0  0 
  6  5  1  0  0  0  0 
  6  8  1  0  0  0  0 
M  END
> <Name>
1,2-DIFLUOROBENZENE

> <Source>
NIST2DMolFile

> <Tox>
94

> <CAS>
367-11-3

$$$$

  CDK

 10 10  0  0  0  0  0  0  0  0999 V2000
    1.0056    0.0000    0.0000 F   0  0  0  0  0  0  0  0  0  0  0  0
    1.0056    1.0056    0.0000 S   0  0  0  0  0  0  0  0  0  0  0  0
    1.0056    2.0111    0.0000 O   0  0  0  0  0  0  0  0  0  0  0  0
    0.0000    1.0056    0.0000 O   0  0  0  0  0  0  0  0  0  0  0  0
    2.0111    1.0056    0.0000 C   0  0  0  0  0  0  0  0  0  0  0  0
    2.5139    1.8603    0.0000 C   0  0  0  0  0  0  0  0  0  0  0  0
    2.5139    0.1508    0.0000 C   0  0  0  0  0  0  0  0  0  0  0  0
    3.5195    1.8603    0.0000 C   0  0  0  0  0  0  0  0  0  0  0  0
    3.5195    0.1508    0.0000 C   0  0  0  0  0  0  0  0  0  0  0  0
    4.0223    1.0056    0.0000 C   0  0  0  0  0  0  0  0  0  0  0  0
  1  2  1  0  0  0  0 
  2  3  2  0  0  0  0 
  2  4  2  0  0  0  0 
  2  5  1  0  0  0  0 
  6  5  2  0  0  0  0 
  5  7  1  0  0  0  0 
  8  6  1  0  0  0  0 
  7  9  2  0  0  0  0 
 10  8  2  0  0  0  0 
  9 10  1  0  0  0  0 
M  END
> <Name>
Benzenesulfonyl fluoride

> <Source>
NIST2DMolFile

> <Tox>
203.5

> <CAS>
368-43-4

$$$$

  CDK

  8  8  0  0  0  0  0  0  0  0999 V2000
    0.0000    1.7462    0.0000 F   0  0  0  0  0  0  0  0  0  0  0  0
    0.9978    1.7462    0.0000 C   0  0  0  0  0  0  0  0  0  0  0  0
    1.4967    0.8481    0.0000 C   0  0  0  0  0  0  0  0  0  0  0  0
    1.4967    2.5943    0.0000 C   0  0  0  0  0  0  0  0  0  0  0  0
    2.4945    0.8481    0.0000 C   0  0  0  0  0  0  0  0  0  0  0  0
    2.4945    2.5943    0.0000 C   0  0  0  0  0  0  0  0  0  0  0  0
    2.9934    0.0000    0.0000 N   0  0  0  0  0  0  0  0  0  0  0  0
    2.9934    1.7462    0.0000 C   0  0  0  0  0  0  0  0  0  0  0  0
  1  2  1  0  0  0  0 
  2  3  2  0  0  0  0 
  4  2  1  0  0  0  0 
  3  5  1  0  0  0  0 
  6  4  2  0  0  0  0 
  5  7  1  0  0  0  0 
  5  8  2  0  0  0  0 
  8  6  1  0  0  0  0 
M  END
> <Name>
3-FLUOROANILINE

> <Source>
NIST2DMolFile

> <Tox>
188

> <CAS>
372-19-0

$$$$

  CDK

  3  2  0  0  0  0  0  0  0  0999 V2000
    0.5834   -0.5834    0.0000 F   0  0  0  0  0  0  0  0  0  0  0  0
    0.0000   -0.0000    0.0000 C   0  0  0  0  0  0  0  0  0  0  0  0
   -0.5834   -0.5834    0.0000 I   0  0  0  0  0  0  0  0  0  0  0  0
  1  2  1  0  0  0  0 
  2  3  1  0  0  0  0 
M  END
> <Name>
Fluoroiodomethane

> <Source>
Smiles

> <Tox>
53.4

> <CAS>
373-53-5

$$$$

  CDK

  9  8  0  0  0  0  0  0  0  0999 V2000
    1.0616    1.0111    0.0000 C   0  0  0  0  0  0  0  0  0  0  0  0
    2.0727    1.0111    0.0000 C   0  0  0  0  0  0  0  0  0  0  0  0
    1.0616    0.0000    0.0000 Br  0  0  0  0  0  0  0  0  0  0  0  0
    1.0616    1.9716    0.0000 F   0  0  0  0  0  0  0  0  0  0  0  0
    0.0000    1.0111    0.0000 F   0  0  0  0  0  0  0  0  0  0  0  0
    3.0332    1.0111    0.0000 C   0  0  0  0  0  0  0  0  0  0  0  0
    2.0727    0.0000    0.0000 Cl  0  0  0  0  0  0  0  0  0  0  0  0
    2.0727    1.9716    0.0000 F   0  0  0  0  0  0  0  0  0  0  0  0
    3.5893    1.8705    0.0000 C   0  0  0  0  0  0  0  0  0  0  0  0
  1  2  1  0  0  0  0 
  1  3  1  0  0  0  0 
  1  4  1  0  0  0  0 
  1  5  1  0  0  0  0 
  2  6  1  0  0  0  0 
  2  7  1  0  0  0  0 
  2  8  1  0  0  0  0 
  6  9  2  0  0  0  0 
M  END
> <Name>
1-BUTENE, 4-BROMO-3-CHLORO-3,4,4-TRIFLUORO-

> <Source>
NIST2DMolFile

> <Tox>
99.5

> <CAS>
374-25-4

$$$$

  CDK

 14 13  0  0  0  0  0  0  0  0999 V2000
    1.3002    3.6219    0.0000 C   0  0  0  0  0  0  0  0  0  0  0  0
    0.0000    3.1576    0.0000 I   0  0  0  0  0  0  0  0  0  0  0  0
    1.5324    4.9686    0.0000 F   0  0  0  0  0  0  0  0  0  0  0  0
    1.5324    2.2289    0.0000 F   0  0  0  0  0  0  0  0  0  0  0  0
    2.6932    3.6219    0.0000 C   0  0  0  0  0  0  0  0  0  0  0  0
    2.6932    5.0150    0.0000 F   0  0  0  0  0  0  0  0  0  0  0  0
    4.0863    3.6219    0.0000 F   0  0  0  0  0  0  0  0  0  0  0  0
    2.6932    1.3931    0.0000 C   0  0  0  0  0  0  0  0  0  0  0  0
    2.8325    0.0000    0.0000 F   0  0  0  0  0  0  0  0  0  0  0  0
    0.9287    1.0680    0.0000 F   0  0  0  0  0  0  0  0  0  0  0  0
    4.5042    1.5324    0.0000 C   0  0  0  0  0  0  0  0  0  0  0  0
    5.2936    3.2040    0.0000 I   0  0  0  0  0  0  0  0  0  0  0  0
    5.8508    1.2073    0.0000 F   0  0  0  0  0  0  0  0  0  0  0  0
    4.3649    0.1393    0.0000 F   0  0  0  0  0  0  0  0  0  0  0  0
  1  2  1  0  0  0  0 
  1  3  1  0  0  0  0 
  1  4  1  0  0  0  0 
  1  5  1  0  0  0  0 
  5  6  1  0  0  0  0 
  5  7  1  0  0  0  0 
  5  8  1  0  0  0  0 
  8  9  1  0  0  0  0 
  8 10  1  0  0  0  0 
  8 11  1  0  0  0  0 
 11 12  1  0  0  0  0 
 11 13  1  0  0  0  0 
 11 14  1  0  0  0  0 
M  END
> <Name>
1,4-Diiodo octafluorobutane

> <Source>
IndexNet2DMolFile

> <Tox>
150

> <CAS>
375-50-8

$$$$

  CDK

 26 25  0  0  0  0  0  0  0  0999 V2000
    0.0000    0.9984    0.0000 F   0  0  0  0  0  0  0  0  0  0  0  0
    0.8486    1.4976    0.0000 C   0  0  0  0  0  0  0  0  0  0  0  0
    1.6972    0.9984    0.0000 C   0  0  0  0  0  0  0  0  0  0  0  0
    0.8486    2.4959    0.0000 F   0  0  0  0  0  0  0  0  0  0  0  0
    1.0982    0.4992    0.0000 F   0  0  0  0  0  0  0  0  0  0  0  0
    2.5958    1.4976    0.0000 C   0  0  0  0  0  0  0  0  0  0  0  0
    1.6972    0.0000    0.0000 F   0  0  0  0  0  0  0  0  0  0  0  0
    1.4476    1.9468    0.0000 F   0  0  0  0  0  0  0  0  0  0  0  0
    3.4444    0.9984    0.0000 C   0  0  0  0  0  0  0  0  0  0  0  0
    2.5958    2.4959    0.0000 F   0  0  0  0  0  0  0  0  0  0  0  0
    2.8454    0.4992    0.0000 F   0  0  0  0  0  0  0  0  0  0  0  0
    3.4444    0.0000    0.0000 F   0  0  0  0  0  0  0  0  0  0  0  0
    3.1948    1.9468    0.0000 F   0  0  0  0  0  0  0  0  0  0  0  0
    4.2930    1.4976    0.0000 C   0  0  0  0  0  0  0  0  0  0  0  0
    5.1916    0.9984    0.0000 C   0  0  0  0  0  0  0  0  0  0  0  0
    4.2930    2.4959    0.0000 F   0  0  0  0  0  0  0  0  0  0  0  0
    4.5925    0.4992    0.0000 F   0  0  0  0  0  0  0  0  0  0  0  0
    5.1916    0.0000    0.0000 F   0  0  0  0  0  0  0  0  0  0  0  0
    6.0402    1.4976    0.0000 C   0  0  0  0  0  0  0  0  0  0  0  0
    4.8921    1.9468    0.0000 F   0  0  0  0  0  0  0  0  0  0  0  0
    6.2898    0.5491    0.0000 F   0  0  0  0  0  0  0  0  0  0  0  0
    6.8888    0.9984    0.0000 C   0  0  0  0  0  0  0  0  0  0  0  0
    6.0402    2.4959    0.0000 F   0  0  0  0  0  0  0  0  0  0  0  0
    7.7374    1.4976    0.0000 O   0  0  0  0  0  0  0  0  0  0  0  0
    6.8888    0.0000    0.0000 O   0  0  0  0  0  0  0  0  0  0  0  0
    8.6360    0.9984    0.0000 C   0  0  0  0  0  0  0  0  0  0  0  0
  1  2  1  0  0  0  0 
  2  3  1  0  0  0  0 
  2  4  1  0  0  0  0 
  2  5  1  0  0  0  0 
  3  6  1  0  0  0  0 
  3  7  1  0  0  0  0 
  3  8  1  0  0  0  0 
  6  9  1  0  0  0  0 
  6 10  1  0  0  0  0 
  6 11  1  0  0  0  0 
  9 12  1  0  0  0  0 
  9 13  1  0  0  0  0 
  9 14  1  0  0  0  0 
 14 15  1  0  0  0  0 
 14 16  1  0  0  0  0 
 14 17  1  0  0  0  0 
 15 18  1  0  0  0  0 
 15 19  1  0  0  0  0 
 15 20  1  0  0  0  0 
 19 21  1  0  0  0  0 
 19 22  1  0  0  0  0 
 19 23  1  0  0  0  0 
 22 24  1  0  0  0  0 
 22 25  2  0  0  0  0 
 24 26  1  0  0  0  0 
M  END
> <Name>
Octanoic acid, pentadecafluoro-, methyl ester

> <Source>
NIST2DMolFile

> <Tox>
158

> <CAS>
376-27-2

$$$$

  CDK

 12 11  0  0  0  0  0  0  0  0999 V2000
   -1.0133   -1.9129    0.0025 F   0  0  0  0  0  0  0  0  0  0  0  0
   -1.2686   -0.5785    0.0030 C   0  0  0  0  0  0  0  0  0  0  0  0
   -2.0668   -0.3409    1.0754 F   0  0  0  0  0  0  0  0  0  0  0  0
   -2.0210   -0.3247   -1.0993 F   0  0  0  0  0  0  0  0  0  0  0  0
   -0.0018    0.2246    0.0026 C   0  0  0  0  0  0  0  0  0  0  0  0
    1.2609   -0.5847    0.0017 C   0  0  0  0  0  0  0  0  0  0  0  0
    0.0014    1.5665    0.0031 C   0  0  0  0  0  0  0  0  0  0  0  0
    1.0509   -1.9262    0.0014 F   0  0  0  0  0  0  0  0  0  0  0  0
    2.0264   -0.3161    1.0912 F   0  0  0  0  0  0  0  0  0  0  0  0
    2.0256   -0.3160   -1.0885 F   0  0  0  0  0  0  0  0  0  0  0  0
    1.1650    2.2515    0.0022 F   0  0  0  0  0  0  0  0  0  0  0  0
   -1.1587    2.2574    0.0046 F   0  0  0  0  0  0  0  0  0  0  0  0
  1  2  1  0  0  0  0 
  3  2  1  0  0  0  0 
  4  2  1  0  0  0  0 
  5  2  1  0  0  0  0 
  5  6  1  0  0  0  0 
  5  7  2  0  0  0  0 
  8  6  1  0  0  0  0 
  9  6  1  0  0  0  0 
 10  6  1  0  0  0  0 
 11  7  1  0  0  0  0 
 12  7  1  0  0  0  0 
M  END
> <Name>
Perfluoroisobutylene

> <Source>
Chemidplus3DMolFile

> <Tox>
0.5

> <CAS>
382-21-8

$$$$

  CDK

 11 10  0  0  0  0  0  0  0  0999 V2000
    2.7067    3.0800    0.0000 C   0  0  0  0  0  0  0  0  0  0  0  0
    3.4067    4.2933    0.0000 O   0  0  0  0  0  0  0  0  0  0  0  0
    1.3067    3.0800    0.0000 C   0  0  0  0  0  0  0  0  0  0  0  0
    0.0000    2.6133    0.0000 F   0  0  0  0  0  0  0  0  0  0  0  0
    0.6067    4.2933    0.0000 F   0  0  0  0  0  0  0  0  0  0  0  0
    1.5400    1.6800    0.0000 C   0  0  0  0  0  0  0  0  0  0  0  0
    0.4667    0.7933    0.0000 F   0  0  0  0  0  0  0  0  0  0  0  0
    2.8467    1.2133    0.0000 C   0  0  0  0  0  0  0  0  0  0  0  0
    3.9200    2.1000    0.0000 F   0  0  0  0  0  0  0  0  0  0  0  0
    3.9200    0.3267    0.0000 F   0  0  0  0  0  0  0  0  0  0  0  0
    2.1467    0.0000    0.0000 F   0  0  0  0  0  0  0  0  0  0  0  0
  1  2  1  0  0  0  0 
  1  3  1  0  0  0  0 
  3  4  1  0  0  0  0 
  3  5  1  0  0  0  0 
  3  6  1  0  0  0  0 
  6  7  1  0  0  0  0 
  6  8  1  0  0  0  0 
  8  9  1  0  0  0  0 
  8 10  1  0  0  0  0 
  8 11  1  0  0  0  0 
M  END
> <Name>
2,2,3,4,4,4-Hexafluoro-1-butanol

> <Source>
IndexNet2DMolFile

> <Tox>
117

> <CAS>
382-31-0

$$$$

  CDK

 11 11  0  0  0  0  0  0  0  0999 V2000
    2.0007    2.5650    0.0000 C   0  0  0  0  0  0  0  0  0  0  0  0
    1.4877    1.7442    0.0000 C   0  0  0  0  0  0  0  0  0  0  0  0
    3.0268    2.5650    0.0000 C   0  0  0  0  0  0  0  0  0  0  0  0
    2.0007    0.8721    0.0000 C   0  0  0  0  0  0  0  0  0  0  0  0
    0.5130    1.7442    0.0000 C   0  0  0  0  0  0  0  0  0  0  0  0
    3.5398    1.7442    0.0000 C   0  0  0  0  0  0  0  0  0  0  0  0
    3.0268    0.8721    0.0000 C   0  0  0  0  0  0  0  0  0  0  0  0
    1.4877    0.0000    0.0000 F   0  0  0  0  0  0  0  0  0  0  0  0
    0.0000    0.8721    0.0000 F   0  0  0  0  0  0  0  0  0  0  0  0
    0.0000    2.5650    0.0000 F   0  0  0  0  0  0  0  0  0  0  0  0
    0.8208    0.7695    0.0000 F   0  0  0  0  0  0  0  0  0  0  0  0
  1  2  2  0  0  0  0 
  3  1  1  0  0  0  0 
  2  4  1  0  0  0  0 
  2  5  1  0  0  0  0 
  6  3  2  0  0  0  0 
  4  7  2  0  0  0  0 
  4  8  1  0  0  0  0 
  5  9  1  0  0  0  0 
  5 10  1  0  0  0  0 
  5 11  1  0  0  0  0 
  7  6  1  0  0  0  0 
M  END
> <Name>
1-FLUORO-2-TRIFLUOROMETHYLBENZENE

> <Source>
NIST2DMolFile

> <Tox>
114.5

> <CAS>
392-85-8

$$$$

  CDK

 11 11  0  0  0  0  0  0  0  0999 V2000
    1.0051    0.0000    0.0000 F   0  0  0  0  0  0  0  0  0  0  0  0
    1.0051    1.0051    0.0000 C   0  0  0  0  0  0  0  0  0  0  0  0
    1.0051    2.0101    0.0000 F   0  0  0  0  0  0  0  0  0  0  0  0
    0.0000    1.0051    0.0000 F   0  0  0  0  0  0  0  0  0  0  0  0
    2.0101    1.0051    0.0000 C   0  0  0  0  0  0  0  0  0  0  0  0
    2.5127    1.8594    0.0000 C   0  0  0  0  0  0  0  0  0  0  0  0
    2.5127    0.1508    0.0000 C   0  0  0  0  0  0  0  0  0  0  0  0
    3.5177    1.8594    0.0000 C   0  0  0  0  0  0  0  0  0  0  0  0
    3.5177    0.1508    0.0000 C   0  0  0  0  0  0  0  0  0  0  0  0
    4.0202    1.0051    0.0000 C   0  0  0  0  0  0  0  0  0  0  0  0
    5.0253    1.0051    0.0000 Br  0  0  0  0  0  0  0  0  0  0  0  0
  1  2  1  0  0  0  0 
  2  3  1  0  0  0  0 
  2  4  1  0  0  0  0 
  2  5  1  0  0  0  0 
  6  5  2  0  0  0  0 
  5  7  1  0  0  0  0 
  8  6  1  0  0  0  0 
  7  9  2  0  0  0  0 
 10  8  2  0  0  0  0 
  9 10  1  0  0  0  0 
 10 11  1  0  0  0  0 
M  END
> <Name>
Benzene, 1-bromo-4-(trifluoromethyl)-

> <Source>
NIST2DMolFile

> <Tox>
160

> <CAS>
402-43-7

$$$$

  CDK

 10 10  0  0  0  0  0  0  0  0999 V2000
    1.7017    1.5015    0.0000 C   0  0  0  0  0  0  0  0  0  0  0  0
    2.5526    2.0020    0.0000 C   0  0  0  0  0  0  0  0  0  0  0  0
    1.7017    0.5005    0.0000 C   0  0  0  0  0  0  0  0  0  0  0  0
    0.8509    2.0020    0.0000 N   0  0  0  0  0  0  0  0  0  0  0  0
    3.4535    1.5015    0.0000 C   0  0  0  0  0  0  0  0  0  0  0  0
    2.5526    0.0000    0.0000 C   0  0  0  0  0  0  0  0  0  0  0  0
    0.8509    3.0030    0.0000 O   0  0  0  0  0  0  0  0  0  0  0  0
    0.0000    1.5015    0.0000 O   0  0  0  0  0  0  0  0  0  0  0  0
    3.4535    0.5005    0.0000 C   0  0  0  0  0  0  0  0  0  0  0  0
    4.3043    2.0020    0.0000 F   0  0  0  0  0  0  0  0  0  0  0  0
  1  2  2  0  0  0  0 
  3  1  1  0  0  0  0 
  1  4  1  0  0  0  0 
  2  5  1  0  0  0  0 
  6  3  2  0  0  0  0 
  4  7  2  0  0  0  0 
  4  8  2  0  0  0  0 
  5  9  2  0  0  0  0 
  5 10  1  0  0  0  0 
  9  6  1  0  0  0  0 
M  END
> <Name>
3-FLUORONITROBENZENE

> <Source>
NIST2DMolFile

> <Tox>
199

> <CAS>
402-67-5

$$$$

  CDK

  9  8  0  0  0  0  0  0  0  0999 V2000
    1.2605    1.0620    0.7863 F   0  0  0  0  0  0  0  0  0  0  0  0
    1.2551    0.0026   -0.0616 C   0  0  0  0  0  0  0  0  0  0  0  0
    1.2465   -1.1156    0.7074 F   0  0  0  0  0  0  0  0  0  0  0  0
    0.0037    0.0423   -0.9283 C   0  0  0  0  0  0  0  0  0  0  0  0
    2.5323    0.0237   -0.8751 C   0  0  0  0  0  0  0  0  0  0  0  0
   -1.2694    0.0002   -0.1080 C   0  0  0  0  0  0  0  0  0  0  0  0
   -2.3656    0.0033   -0.8953 F   0  0  0  0  0  0  0  0  0  0  0  0
   -1.3445    1.0805    0.7012 F   0  0  0  0  0  0  0  0  0  0  0  0
   -1.3186   -1.0991    0.6735 F   0  0  0  0  0  0  0  0  0  0  0  0
  1  2  1  0  0  0  0 
  3  2  1  0  0  0  0 
  4  2  1  0  0  0  0 
  2  5  1  0  0  0  0 
  4  6  1  0  0  0  0 
  7  6  1  0  0  0  0 
  8  6  1  0  0  0  0 
  9  6  1  0  0  0  0 
M  END
> <Name>
HFC-365mfc

> <Source>
Chemidplus3DMolFile

> <Tox>
40

> <CAS>
406-58-6

$$$$

  CDK

  5  4  0  0  0  0  0  0  0  0999 V2000
    1.0000    0.0000    0.0000 C   0  0  0  0  0  0  0  0  0  0  0  0
    1.0000    1.0000    0.0000 C   0  0  0  0  0  0  0  0  0  0  0  0
    0.0000    1.0000    0.0000 C   0  0  0  0  0  0  0  0  0  0  0  0
    2.0000    1.0000    0.0000 F   0  0  0  0  0  0  0  0  0  0  0  0
    1.0000    2.0000    0.0000 F   0  0  0  0  0  0  0  0  0  0  0  0
  1  2  1  0  0  0  0 
  2  3  1  0  0  0  0 
  2  4  1  0  0  0  0 
  2  5  1  0  0  0  0 
M  END
> <Name>
PROPANE, 2,2-DIFLUORO-

> <Source>
NIST2DMolFile

> <Tox>
-0.4

> <CAS>
420-45-1

$$$$

  CDK

  5  4  0  0  0  0  0  0  0  0999 V2000
    0.6254    1.0610    0.8806 C   0  0  0  0  0  0  0  0  0  0  0  0
    2.1177    1.2975    1.1963 C   0  0  0  0  0  0  0  0  0  0  0  0
    2.4280    2.5887    1.4527 F   0  0  0  0  0  0  0  0  0  0  0  0
    2.9544    0.9382    0.1964 F   0  0  0  0  0  0  0  0  0  0  0  0
    2.5657    0.6181    2.2764 F   0  0  0  0  0  0  0  0  0  0  0  0
  1  2  1  0  0  0  0 
  2  3  1  0  0  0  0 
  2  4  1  0  0  0  0 
  2  5  1  0  0  0  0 
M  END
> <Name>
1,1,1-TRIFLUOROETHANE

> <Source>
NIST3DMolFile

> <Tox>
-47.5

> <CAS>
420-46-2

$$$$

  CDK

 10  9  0  0  0  0  0  0  0  0999 V2000
    1.0087    2.0174    0.0000 F   0  0  0  0  0  0  0  0  0  0  0  0
    1.0087    1.0087    0.0000 C   0  0  0  0  0  0  0  0  0  0  0  0
    1.0087    0.0000    0.0000 F   0  0  0  0  0  0  0  0  0  0  0  0
    0.0000    1.0087    0.0000 F   0  0  0  0  0  0  0  0  0  0  0  0
    2.0174    1.0087    0.0000 C   0  0  0  0  0  0  0  0  0  0  0  0
    3.0261    1.0087    0.0000 C   0  0  0  0  0  0  0  0  0  0  0  0
    2.0174    2.0174    0.0000 F   0  0  0  0  0  0  0  0  0  0  0  0
    2.0174    0.0504    0.0000 F   0  0  0  0  0  0  0  0  0  0  0  0
    3.5305    1.8661    0.0000 Cl  0  0  0  0  0  0  0  0  0  0  0  0
    3.5305    0.1513    0.0000 Cl  0  0  0  0  0  0  0  0  0  0  0  0
  1  2  1  0  0  0  0 
  2  3  1  0  0  0  0 
  2  4  1  0  0  0  0 
  2  5  1  0  0  0  0 
  5  6  1  0  0  0  0 
  5  7  1  0  0  0  0 
  5  8  1  0  0  0  0 
  6  9  1  0  0  0  0 
  6 10  1  0  0  0  0 
M  END
> <Name>
3,3-Dichloro-1,1,1,2,2-pentafluoropropane

> <Source>
NIST2DMolFile

> <Tox>
51.1

> <CAS>
422-56-0

$$$$

  CDK

 14 13  0  0  0  0  0  0  0  0999 V2000
   -2.2078   -0.2994    0.0000 F   0  0  0  0  0  0  0  0  0  0  0  0
   -1.3928   -0.1711    0.0000 C   0  0  0  0  0  0  0  0  0  0  0  0
   -1.5212    0.6439    0.0000 F   0  0  0  0  0  0  0  0  0  0  0  0
   -1.2645   -0.9861    0.0000 F   0  0  0  0  0  0  0  0  0  0  0  0
   -0.5779   -0.0428    0.0000 C   0  0  0  0  0  0  0  0  0  0  0  0
   -0.7062    0.7722    0.0000 F   0  0  0  0  0  0  0  0  0  0  0  0
   -0.4496   -0.8577    0.0000 F   0  0  0  0  0  0  0  0  0  0  0  0
    0.2371    0.0855    0.0000 C   0  0  0  0  0  0  0  0  0  0  0  0
    0.1088    0.9005    0.0000 F   0  0  0  0  0  0  0  0  0  0  0  0
    0.3654   -0.7294    0.0000 F   0  0  0  0  0  0  0  0  0  0  0  0
    1.0520    0.2139    0.0000 S   0  0  0  0  0  0  0  0  0  0  0  0
    0.9237    1.0288    0.0000 O   0  0  0  0  0  0  0  0  0  0  0  0
    1.1804   -0.6011    0.0000 O   0  0  0  0  0  0  0  0  0  0  0  0
    1.8670    0.3422    0.0000 O   0  0  0  0  0  0  0  0  0  0  0  0
  1  2  1  0  0  0  0 
  2  3  1  0  0  0  0 
  2  4  1  0  0  0  0 
  2  5  1  0  0  0  0 
  5  6  1  0  0  0  0 
  5  7  1  0  0  0  0 
  5  8  1  0  0  0  0 
  8  9  1  0  0  0  0 
  8 10  1  0  0  0  0 
  8 11  1  0  0  0  0 
 11 12  2  0  0  0  0 
 11 13  2  0  0  0  0 
 11 14  1  0  0  0  0 
M  END
> <Name>
Perfluoropropane-1-sulfonic Acid

> <Source>
Smiles

> <Tox>
196

> <CAS>
423-41-6

$$$$

  CDK

 10 10  0  0  0  0  0  0  0  0999 V2000
    3.3121   -0.1754    0.0000 O   0  0  0  0  0  0  0  0  0  0  0  0
    3.9872   -1.3291    0.0000 C   0  0  0  0  0  0  0  0  0  0  0  0
    2.6582   -1.3291    0.0000 C   0  0  0  0  0  0  0  0  0  0  0  0
    5.3163   -1.3291    0.0000 F   0  0  0  0  0  0  0  0  0  0  0  0
    4.6411   -2.4827    0.0000 F   0  0  0  0  0  0  0  0  0  0  0  0
    1.9830   -2.4827    0.0000 F   0  0  0  0  0  0  0  0  0  0  0  0
    1.3291   -1.3291    0.0000 C   0  0  0  0  0  0  0  0  0  0  0  0
    1.3291   -0.0000    0.0000 F   0  0  0  0  0  0  0  0  0  0  0  0
    1.3291   -2.6582    0.0000 F   0  0  0  0  0  0  0  0  0  0  0  0
    0.0000   -1.3291    0.0000 F   0  0  0  0  0  0  0  0  0  0  0  0
  1  2  1  0  0  0  0 
  1  3  1  0  0  0  0 
  2  3  1  0  0  0  0 
  2  4  1  0  0  0  0 
  2  5  1  0  0  0  0 
  3  6  1  0  0  0  0 
  3  7  1  0  0  0  0 
  7  8  1  0  0  0  0 
  7  9  1  0  0  0  0 
  7 10  1  0  0  0  0 
M  END
> <Name>
Oxirane, trifluoro(trifluoromethyl)-

> <Source>
DSSTox2DMolFile

> <Tox>
-27.4

> <CAS>
428-59-1

$$$$

  CDK

  5  4  0  0  0  0  0  0  0  0999 V2000
    0.0000    0.9777    0.0000 C   0  0  0  0  0  0  0  0  0  0  0  0
    0.8748    1.4923    0.0000 C   0  0  0  0  0  0  0  0  0  0  0  0
    1.6982    0.9263    0.0000 C   0  0  0  0  0  0  0  0  0  0  0  0
    2.6244    1.4409    0.0000 F   0  0  0  0  0  0  0  0  0  0  0  0
    1.6982    0.0000    0.0000 O   0  0  0  0  0  0  0  0  0  0  0  0
  1  2  1  0  0  0  0 
  2  3  1  0  0  0  0 
  3  4  1  0  0  0  0 
  3  5  2  0  0  0  0 
M  END
> <Name>
Propanoyl fluoride

> <Source>
NIST2DMolFile

> <Tox>
44

> <CAS>
430-71-7

$$$$

  CDK

  6  5  0  0  0  0  0  0  0  0999 V2000
    2.0152   -0.6482   -0.2818 Cl  0  0  0  0  0  0  0  0  0  0  0  0
    0.6000    0.4138   -0.3808 C   0  0  0  0  0  0  0  0  0  0  0  0
    0.5928    1.2465    0.6945 F   0  0  0  0  0  0  0  0  0  0  0  0
   -0.6799   -0.3861   -0.3812 C   0  0  0  0  0  0  0  0  0  0  0  0
   -1.7375    0.4629   -0.4239 F   0  0  0  0  0  0  0  0  0  0  0  0
   -0.7906   -1.0888    0.7731 F   0  0  0  0  0  0  0  0  0  0  0  0
  1  2  1  0  0  0  0 
  3  2  1  0  0  0  0 
  2  4  1  0  0  0  0 
  5  4  1  0  0  0  0 
  6  4  1  0  0  0  0 
M  END
> <Name>
1-chloro-1,2,2-trifluoroethane

> <Source>
Chemidplus3DMolFile

> <Tox>
17

> <CAS>
431-07-2

$$$$

  CDK

  8  7  0  0  0  0  0  0  0  0999 V2000
    0.9233    1.8978    0.0000 O   0  0  0  0  0  0  0  0  0  0  0  0
    1.3849    1.0259    0.0000 C   0  0  0  0  0  0  0  0  0  0  0  0
    0.0000    1.8978    0.0000 C   0  0  0  0  0  0  0  0  0  0  0  0
    0.9233    0.1539    0.0000 O   0  0  0  0  0  0  0  0  0  0  0  0
    2.4621    1.0259    0.0000 C   0  0  0  0  0  0  0  0  0  0  0  0
    2.4621    2.0517    0.0000 F   0  0  0  0  0  0  0  0  0  0  0  0
    3.4366    1.0259    0.0000 F   0  0  0  0  0  0  0  0  0  0  0  0
    2.4621    0.0000    0.0000 F   0  0  0  0  0  0  0  0  0  0  0  0
  1  2  1  0  0  0  0 
  1  3  1  0  0  0  0 
  2  4  2  0  0  0  0 
  2  5  1  0  0  0  0 
  5  6  1  0  0  0  0 
  5  7  1  0  0  0  0 
  5  8  1  0  0  0  0 
M  END
> <Name>
METHYLTRIFLUOROACETATE

> <Source>
NIST2DMolFile

> <Tox>
43.25

> <CAS>
431-47-0

$$$$

  CDK

 10  9  0  0  0  0  0  0  0  0999 V2000
   -0.0032    2.2166   -0.0768 Cl  0  0  0  0  0  0  0  0  0  0  0  0
    0.0010    0.4946   -0.5590 C   0  0  0  0  0  0  0  0  0  0  0  0
   -1.2572   -0.1803   -0.0470 C   0  0  0  0  0  0  0  0  0  0  0  0
    1.2634   -0.1737   -0.0489 C   0  0  0  0  0  0  0  0  0  0  0  0
   -1.3412   -1.4658   -0.4514 F   0  0  0  0  0  0  0  0  0  0  0  0
   -1.3032   -0.1673    1.3040 F   0  0  0  0  0  0  0  0  0  0  0  0
   -2.3623    0.4610   -0.4899 F   0  0  0  0  0  0  0  0  0  0  0  0
    2.3777    0.4526   -0.4835 F   0  0  0  0  0  0  0  0  0  0  0  0
    1.2954   -0.1747    1.3028 F   0  0  0  0  0  0  0  0  0  0  0  0
    1.3296   -1.4630   -0.4501 F   0  0  0  0  0  0  0  0  0  0  0  0
  1  2  1  0  0  0  0 
  2  3  1  0  0  0  0 
  2  4  1  0  0  0  0 
  5  3  1  0  0  0  0 
  6  3  1  0  0  0  0 
  7  3  1  0  0  0  0 
  8  4  1  0  0  0  0 
  9  4  1  0  0  0  0 
 10  4  1  0  0  0  0 
M  END
> <Name>
HCFC 226

> <Source>
Chemidplus3DMolFile

> <Tox>
14.1

> <CAS>
431-87-8

$$$$

  CDK

 11 11  0  0  0  0  0  0  0  0999 V2000
    3.9861   -2.3043    0.0000 C   0  0  0  0  0  0  0  0  0  0  0  0
    3.3277   -3.4594    0.0000 C   0  0  0  0  0  0  0  0  0  0  0  0
    3.3277   -1.1551    0.0000 C   0  0  0  0  0  0  0  0  0  0  0  0
    5.3147   -2.3043    0.0000 N   0  0  0  0  0  0  0  0  0  0  0  0
    1.9990   -3.4594    0.0000 C   0  0  0  0  0  0  0  0  0  0  0  0
    1.9990   -1.1551    0.0000 C   0  0  0  0  0  0  0  0  0  0  0  0
    3.9861   -0.0000    0.0000 F   0  0  0  0  0  0  0  0  0  0  0  0
    5.9851   -1.1551    0.0000 O   0  0  0  0  0  0  0  0  0  0  0  0
    5.9851   -3.4594    0.0000 O   0  0  0  0  0  0  0  0  0  0  0  0
    1.3287   -2.3043    0.0000 C   0  0  0  0  0  0  0  0  0  0  0  0
    0.0000   -2.3043    0.0000 F   0  0  0  0  0  0  0  0  0  0  0  0
  1  2  2  0  0  0  0 
  1  3  1  0  0  0  0 
  1  4  1  0  0  0  0 
  2  5  1  0  0  0  0 
  6  3  2  0  0  0  0 
  3  7  1  0  0  0  0 
  4  8  1  0  0  0  0 
  4  9  2  0  0  0  0 
  5 10  2  0  0  0  0 
 10  6  1  0  0  0  0 
 10 11  1  0  0  0  0 
M  CHG  1   4   1
M  CHG  1   8  -1
M  END
> <Name>
Benzene, 2,4-difluoro-1-nitro-

> <Source>
DSSTox2DMolFile

> <Tox>
207

> <CAS>
446-35-5

$$$$

  CDK

 15 16  0  0  0  0  0  0  0  0999 V2000
    3.4635    1.4844    0.0000 C   0  0  0  0  0  0  0  0  0  0  0  0
    2.5729    1.9792    0.0000 C   0  0  0  0  0  0  0  0  0  0  0  0
    4.3047    1.9297    0.0000 C   0  0  0  0  0  0  0  0  0  0  0  0
    2.5729    2.9687    0.0000 O   0  0  0  0  0  0  0  0  0  0  0  0
    1.7318    1.5338    0.0000 C   0  0  0  0  0  0  0  0  0  0  0  0
    4.3047    2.9687    0.0000 C   0  0  0  0  0  0  0  0  0  0  0  0
    5.1458    1.4349    0.0000 C   0  0  0  0  0  0  0  0  0  0  0  0
    0.8906    2.0286    0.0000 C   0  0  0  0  0  0  0  0  0  0  0  0
    1.7318    0.4948    0.0000 C   0  0  0  0  0  0  0  0  0  0  0  0
    5.1953    3.4635    0.0000 C   0  0  0  0  0  0  0  0  0  0  0  0
    6.0364    1.9297    0.0000 C   0  0  0  0  0  0  0  0  0  0  0  0
    0.0000    1.5338    0.0000 C   0  0  0  0  0  0  0  0  0  0  0  0
    0.8411    0.0000    0.0000 C   0  0  0  0  0  0  0  0  0  0  0  0
    6.0364    2.9193    0.0000 C   0  0  0  0  0  0  0  0  0  0  0  0
    0.0000    0.5443    0.0000 C   0  0  0  0  0  0  0  0  0  0  0  0
  1  2  1  0  0  0  0 
  1  3  1  0  0  0  0 
  2  4  2  0  0  0  0 
  2  5  1  0  0  0  0 
  3  6  2  0  0  0  0 
  7  3  1  0  0  0  0 
  8  5  2  0  0  0  0 
  5  9  1  0  0  0  0 
  6 10  1  0  0  0  0 
 11  7  2  0  0  0  0 
 12  8  1  0  0  0  0 
  9 13  2  0  0  0  0 
 10 14  2  0  0  0  0 
 14 11  1  0  0  0  0 
 15 12  2  0  0  0  0 
 13 15  1  0  0  0  0 
M  END
> <Name>
2-PHENYLACETOPHENONE

> <Source>
NIST2DMolFile

> <Tox>
320

> <CAS>
451-40-1

$$$$

  CDK

  9  9  0  0  0  0  0  0  0  0999 V2000
    0.0000   -2.6589    0.0000 O   0  0  0  0  0  0  0  0  0  0  0  0
    1.1520   -1.9953    0.0000 C   0  0  0  0  0  0  0  0  0  0  0  0
    1.1520   -0.6636    0.0000 C   0  0  0  0  0  0  0  0  0  0  0  0
    2.3041   -2.6589    0.0000 C   0  0  0  0  0  0  0  0  0  0  0  0
    2.3041   -0.0000    0.0000 C   0  0  0  0  0  0  0  0  0  0  0  0
    0.0000   -0.0000    0.0000 O   0  0  0  0  0  0  0  0  0  0  0  0
    3.4561   -1.9953    0.0000 C   0  0  0  0  0  0  0  0  0  0  0  0
    3.4561   -0.6636    0.0000 C   0  0  0  0  0  0  0  0  0  0  0  0
    4.6082   -2.6589    0.0000 C   0  0  0  0  0  0  0  0  0  0  0  0
  1  2  1  0  0  0  0 
  2  3  2  0  0  0  0 
  2  4  1  0  0  0  0 
  3  5  1  0  0  0  0 
  3  6  1  0  0  0  0 
  7  4  2  0  0  0  0 
  5  8  2  0  0  0  0 
  8  7  1  0  0  0  0 
  7  9  1  0  0  0  0 
M  END
> <Name>
1,2-BENZENEDIOL, 4-METHYL-

> <Source>
DSSTox2DMolFile

> <Tox>
251

> <CAS>
452-86-8

$$$$

  CDK

  6  5  0  0  0  0  0  0  0  0999 V2000
    0.1153   -0.5057   -0.0163 C   0  0  0  0  0  0  0  0  0  0  0  0
   -1.4103   -0.5008   -0.0925 C   0  0  0  0  0  0  0  0  0  0  0  0
    0.8131   -1.4969    0.0576 O   0  0  0  0  0  0  0  0  0  0  0  0
    0.6838    0.7299   -0.0514 O   0  0  0  0  0  0  0  0  0  0  0  0
   -1.9630    0.7247    0.0735 F   0  0  0  0  0  0  0  0  0  0  0  0
    2.0917    0.8288    0.0110 C   0  0  0  0  0  0  0  0  0  0  0  0
  1  2  1  0  0  0  0 
  1  3  2  0  0  0  0 
  1  4  1  0  0  0  0 
  2  5  1  0  0  0  0 
  4  6  1  0  0  0  0 
M  END
> <Name>
FLUORESSIGSAEURE-METHYLESTER

> <Source>
DougDB3DMolFile

> <Tox>
104.5

> <CAS>
453-18-9

$$$$

  CDK

  9  9  0  0  0  0  0  0  0  0999 V2000
    0.0000    0.0000    0.0000 C   0  0  0  0  0  0  0  0  0  0  0  0
   -0.6600    1.2600   -0.1000 O   0  0  0  0  0  0  0  0  0  0  0  0
    0.1000    2.3400   -0.1800 C   0  0  0  0  0  0  0  0  0  0  0  0
    1.4800    2.2400   -0.1000 C   0  0  0  0  0  0  0  0  0  0  0  0
   -0.5000    3.6200   -0.3200 C   0  0  0  0  0  0  0  0  0  0  0  0
    2.3000    3.4000   -0.1800 C   0  0  0  0  0  0  0  0  0  0  0  0
    0.3000    4.7600   -0.4000 C   0  0  0  0  0  0  0  0  0  0  0  0
    1.7000    4.6600   -0.3200 C   0  0  0  0  0  0  0  0  0  0  0  0
    3.6200    3.2800   -0.1200 F   0  0  0  0  0  0  0  0  0  0  0  0
  1  2  1  0  0  0  0 
  2  3  1  0  0  0  0 
  3  4  2  0  0  0  0 
  3  5  1  0  0  0  0 
  4  6  1  0  0  0  0 
  7  5  2  0  0  0  0 
  6  8  2  0  0  0  0 
  6  9  1  0  0  0  0 
  8  7  1  0  0  0  0 
M  END
> <Name>
M-FLUOROANISOLE

> <Source>
NIH3DMolFile

> <Tox>
159

> <CAS>
456-49-5

$$$$

  CDK

 11 11  0  0  0  0  0  0  0  0999 V2000
    2.0388    1.7330    0.0000 C   0  0  0  0  0  0  0  0  0  0  0  0
    1.5291    2.5995    0.0000 C   0  0  0  0  0  0  0  0  0  0  0  0
    1.5291    0.8665    0.0000 C   0  0  0  0  0  0  0  0  0  0  0  0
    3.0073    1.7330    0.0000 O   0  0  0  0  0  0  0  0  0  0  0  0
    0.5097    2.5995    0.0000 C   0  0  0  0  0  0  0  0  0  0  0  0
    0.5097    0.8665    0.0000 C   0  0  0  0  0  0  0  0  0  0  0  0
    3.5170    0.8665    0.0000 C   0  0  0  0  0  0  0  0  0  0  0  0
    0.0000    1.7330    0.0000 C   0  0  0  0  0  0  0  0  0  0  0  0
    4.0267    0.0000    0.0000 F   0  0  0  0  0  0  0  0  0  0  0  0
    2.6505    0.4078    0.0000 F   0  0  0  0  0  0  0  0  0  0  0  0
    4.3835    1.3252    0.0000 F   0  0  0  0  0  0  0  0  0  0  0  0
  2  1  2  0  0  0  0 
  1  3  1  0  0  0  0 
  1  4  1  0  0  0  0 
  5  2  1  0  0  0  0 
  3  6  2  0  0  0  0 
  4  7  1  0  0  0  0 
  8  5  2  0  0  0  0 
  6  8  1  0  0  0  0 
  7  9  1  0  0  0  0 
  7 10  1  0  0  0  0 
  7 11  1  0  0  0  0 
M  END
> <Name>
TRIFLUOROMETHOXYBENZENE

> <Source>
NIST2DMolFile

> <Tox>
102

> <CAS>
456-55-3

$$$$

  CDK

  9  9  0  0  0  0  0  0  0  0999 V2000
    2.7984    1.2127    0.0000 C   0  0  0  0  0  0  0  0  0  0  0  0
    2.0988    0.0000    0.0000 N   0  0  0  0  0  0  0  0  0  0  0  0
    4.1977    1.2127    0.0000 C   0  0  0  0  0  0  0  0  0  0  0  0
    2.0988    2.4253    0.0000 C   0  0  0  0  0  0  0  0  0  0  0  0
    0.6996    0.0000    0.0000 C   0  0  0  0  0  0  0  0  0  0  0  0
    4.8973    2.4253    0.0000 C   0  0  0  0  0  0  0  0  0  0  0  0
    0.6996    2.4253    0.0000 C   0  0  0  0  0  0  0  0  0  0  0  0
    0.0000    1.2127    0.0000 C   0  0  0  0  0  0  0  0  0  0  0  0
    6.2965    2.4253    0.0000 C   0  0  0  0  0  0  0  0  0  0  0  0
  1  2  1  0  0  0  0 
  1  3  1  0  0  0  0 
  1  4  1  0  0  0  0 
  2  5  1  0  0  0  0 
  3  6  1  0  0  0  0 
  4  7  1  0  0  0  0 
  5  8  1  0  0  0  0 
  6  9  1  0  0  0  0 
  7  8  1  0  0  0  0 
M  END
> <Name>
2-PROPYLPIPERIDINE

> <Source>
IndexNet2DMolFile

> <Tox>
166.5

> <CAS>
458-88-8

$$$$

  CDK

 10 10  0  0  0  0  0  0  0  0999 V2000
    2.0267    2.5841    0.0000 C   0  0  0  0  0  0  0  0  0  0  0  0
    1.5200    1.7227    0.0000 C   0  0  0  0  0  0  0  0  0  0  0  0
    3.0401    2.5841    0.0000 C   0  0  0  0  0  0  0  0  0  0  0  0
    2.0267    0.8614    0.0000 C   0  0  0  0  0  0  0  0  0  0  0  0
    0.5067    1.7227    0.0000 O   0  0  0  0  0  0  0  0  0  0  0  0
    3.4961    1.7227    0.0000 C   0  0  0  0  0  0  0  0  0  0  0  0
    3.0401    0.8614    0.0000 C   0  0  0  0  0  0  0  0  0  0  0  0
    0.0000    0.8614    0.0000 C   0  0  0  0  0  0  0  0  0  0  0  0
    4.5095    1.7227    0.0000 F   0  0  0  0  0  0  0  0  0  0  0  0
    0.5067    0.0000    0.0000 C   0  0  0  0  0  0  0  0  0  0  0  0
  1  2  2  0  0  0  0 
  3  1  1  0  0  0  0 
  2  4  1  0  0  0  0 
  2  5  1  0  0  0  0 
  6  3  2  0  0  0  0 
  4  7  2  0  0  0  0 
  5  8  1  0  0  0  0 
  6  9  1  0  0  0  0 
  7  6  1  0  0  0  0 
  8 10  1  0  0  0  0 
M  END
> <Name>
BENZENE, 1-ETHOXY-4-FLUORO-

> <Source>
NIST2DMolFile

> <Tox>
173

> <CAS>
459-26-7

$$$$

  CDK

  9  9  0  0  0  0  0  0  0  0999 V2000
    1.8316   -0.9381    4.0226 F   0  0  0  0  0  0  0  0  0  0  0  0
    1.8497   -0.9689    2.6836 C   0  0  0  0  0  0  0  0  0  0  0  0
    0.7994   -0.4058    1.9588 C   0  0  0  0  0  0  0  0  0  0  0  0
    2.9185   -1.5646    2.0141 C   0  0  0  0  0  0  0  0  0  0  0  0
    0.8178   -0.4385    0.5644 C   0  0  0  0  0  0  0  0  0  0  0  0
    2.9371   -1.5972    0.6197 C   0  0  0  0  0  0  0  0  0  0  0  0
    1.8867   -1.0341   -0.1051 C   0  0  0  0  0  0  0  0  0  0  0  0
    1.9065   -1.0699   -1.5959 C   0  0  0  0  0  0  0  0  0  0  0  0
    1.2685   -2.2578   -2.0485 O   0  0  0  0  0  0  0  0  0  0  0  0
  1  2  1  0  0  0  0 
  3  2  2  0  0  0  0 
  4  2  1  0  0  0  0 
  5  3  1  0  0  0  0 
  6  4  2  0  0  0  0 
  7  5  2  0  0  0  0 
  7  6  1  0  0  0  0 
  7  8  1  0  0  0  0 
  9  8  1  0  0  0  0 
M  END
> <Name>
BENZENEMETHANOL, 4-FLUORO-

> <Source>
Chemidplus3DMolFile

> <Tox>
210

> <CAS>
459-56-3

$$$$

  CDK

  7  7  0  0  0  0  0  0  0  0999 V2000
    0.0000   -1.1496    0.0000 F   0  0  0  0  0  0  0  0  0  0  0  0
    1.3292   -1.1496    0.0000 C   0  0  0  0  0  0  0  0  0  0  0  0
    1.9958   -0.0000    0.0000 C   0  0  0  0  0  0  0  0  0  0  0  0
    1.9958   -2.3032    0.0000 C   0  0  0  0  0  0  0  0  0  0  0  0
    3.3250   -0.0000    0.0000 C   0  0  0  0  0  0  0  0  0  0  0  0
    3.3250   -2.3032    0.0000 C   0  0  0  0  0  0  0  0  0  0  0  0
    3.9916   -1.1496    0.0000 C   0  0  0  0  0  0  0  0  0  0  0  0
  1  2  1  0  0  0  0 
  2  3  2  0  0  0  0 
  2  4  1  0  0  0  0 
  3  5  1  0  0  0  0 
  6  4  2  0  0  0  0 
  5  7  2  0  0  0  0 
  7  6  1  0  0  0  0 
M  END
> <Name>
FLUOROBENZENE

> <Source>
DSSTox2DMolFile

> <Tox>
84.7

> <CAS>
462-06-6

$$$$

  CDK

  6  5  0  0  0  0  0  0  0  0999 V2000
    2.0625    0.0000    0.0000 Cl  0  0  0  0  0  0  0  0  0  0  0  0
    1.2375    0.0000    0.0000 C   0  0  0  0  0  0  0  0  0  0  0  0
    0.4125    0.0000    0.0000 C   0  0  0  0  0  0  0  0  0  0  0  0
   -0.4125    0.0000    0.0000 C   0  0  0  0  0  0  0  0  0  0  0  0
   -1.2375   -0.0000    0.0000 C   0  0  0  0  0  0  0  0  0  0  0  0
   -1.2375   -0.8250    0.0000 F   0  0  0  0  0  0  0  0  0  0  0  0
  1  2  1  0  0  0  0 
  2  3  1  0  0  0  0 
  3  4  1  0  0  0  0 
  4  5  1  0  0  0  0 
  5  6  1  0  0  0  0 
M  END
> <Name>
1-Chloro-4-fluorobutane

> <Source>
Smiles

> <Tox>
114.7

> <CAS>
462-73-7

$$$$

  CDK

  3  2  0  0  0  0  0  0  0  0999 V2000
    0.0000   -0.0000    0.0000 C   0  0  0  0  0  0  0  0  0  0  0  0
    1.1574   -0.6673    0.0000 C   0  0  0  0  0  0  0  0  0  0  0  0
    2.3010   -0.0000    0.0000 C   0  0  0  0  0  0  0  0  0  0  0  0
  1  2  2  0  0  0  0 
  2  3  2  0  0  0  0 
M  END
> <Name>
1,2-PROPADIENE

> <Source>
DSSTox2DMolFile

> <Tox>
-34.4

> <CAS>
463-49-0

$$$$

  CDK

  5  4  0  0  0  0  0  0  0  0999 V2000
    0.4805   -0.0000    0.0000 C   0  0  0  0  0  0  0  0  0  0  0  0
    1.1550   -1.1550    0.0000 C   0  0  0  0  0  0  0  0  0  0  0  0
    2.2938   -0.4967    0.0000 C   0  0  0  0  0  0  0  0  0  0  0  0
    0.0000   -1.8295    0.0000 C   0  0  0  0  0  0  0  0  0  0  0  0
    1.8134   -2.3100    0.0000 C   0  0  0  0  0  0  0  0  0  0  0  0
  1  2  1  0  0  0  0 
  2  3  1  0  0  0  0 
  2  4  1  0  0  0  0 
  2  5  1  0  0  0  0 
M  END
> <Name>
2,2-DIMETHYLPROPANE

> <Source>
DSSTox2DMolFile

> <Tox>
9.5

> <CAS>
463-82-1

$$$$

  CDK

 10 11  0  0  0  0  0  0  0  0999 V2000
    0.0000    0.0000    0.0000 C   0  0  0  0  0  0  0  0  0  0  0  0
    1.1800   -0.4200   -0.9000 C   0  0  0  0  0  0  0  0  0  0  0  0
    2.2200   -1.1400   -0.0400 C   0  0  0  0  0  0  0  0  0  0  0  0
    1.7200    0.7000   -1.7800 C   0  0  0  0  0  0  0  0  0  0  0  0
    0.7600   -1.2000   -2.1400 C   0  0  0  0  0  0  0  0  0  0  0  0
    2.3400    1.9000   -1.0400 C   0  0  0  0  0  0  0  0  0  0  0  0
    2.7400   -0.0200   -2.6800 C   0  0  0  0  0  0  0  0  0  0  0  0
    0.5200    1.1000   -2.6400 C   0  0  0  0  0  0  0  0  0  0  0  0
    2.0600   -1.3600   -2.9400 C   0  0  0  0  0  0  0  0  0  0  0  0
   -0.1600   -0.2400   -2.8800 C   0  0  0  0  0  0  0  0  0  0  0  0
  1  2  1  0  0  0  0 
  2  3  1  0  0  0  0 
  2  4  1  0  0  0  0 
  2  5  1  0  0  0  0 
  6  4  1  0  0  0  0 
  4  7  1  0  0  0  0 
  4  8  1  0  0  0  0 
  9  5  1  0  0  0  0 
  5 10  1  0  0  0  0 
  7  9  1  0  0  0  0 
 10  8  1  0  0  0  0 
M  END
> <Name>
BICYCLO[2.2.1]HEPTANE, 1,7,7-TRIMETHYL-

> <Source>
NIH3DMolFile

> <Tox>
161

> <CAS>
464-15-3

$$$$

  CDK

 11 12  0  0  0  0  0  0  0  0999 V2000
    1.5616   -0.0000    0.0000 C   0  0  0  0  0  0  0  0  0  0  0  0
    1.9893   -0.4818    0.0000 C   0  0  0  0  0  0  0  0  0  0  0  0
    1.5616   -1.6114    0.0000 C   0  0  0  0  0  0  0  0  0  0  0  0
    1.9893   -2.2842    0.0000 C   0  0  0  0  0  0  0  0  0  0  0  0
    0.1703   -2.4213    0.0000 O   0  0  0  0  0  0  0  0  0  0  0  0
    3.1730   -2.1472    0.0000 C   0  0  0  0  0  0  0  0  0  0  0  0
    0.4818   -1.0300    0.0000 C   0  0  0  0  0  0  0  0  0  0  0  0
    1.0134   -2.9529    0.0000 C   0  0  0  0  0  0  0  0  0  0  0  0
    3.3308   -2.9529    0.0000 C   0  0  0  0  0  0  0  0  0  0  0  0
    0.0000   -4.0825    0.0000 C   0  0  0  0  0  0  0  0  0  0  0  0
    1.6322   -4.1531    0.0000 C   0  0  0  0  0  0  0  0  0  0  0  0
  1  2  1  0  0  0  0 
  1  3  1  0  0  0  0 
  4  2  1  0  0  0  0 
  5  3  1  0  0  0  0 
  3  6  1  0  0  0  0 
  3  7  1  0  0  0  0 
  8  4  1  0  0  0  0 
  4  9  1  0  0  0  0 
  5  8  1  0  0  0  0 
  6  9  1  0  0  0  0 
  8 10  1  0  0  0  0 
  8 11  1  0  0  0  0 
M  END
> <Name>
1,8-CINEOLE

> <Source>
DSSTox2DMolFile

> <Tox>
176.4

> <CAS>
470-82-6

$$$$

  CDK

 10 11  0  0  0  0  0  0  0  0999 V2000
    0.0000   -0.0000    0.0000 C   0  0  0  0  0  0  0  0  0  0  0  0
    1.0067   -1.0021    0.0000 C   0  0  0  0  0  0  0  0  0  0  0  0
    0.6987   -2.1375    0.0000 C   0  0  0  0  0  0  0  0  0  0  0  0
    2.1375   -0.7125    0.0000 C   0  0  0  0  0  0  0  0  0  0  0  0
    1.5261   -2.9650    0.0000 C   0  0  0  0  0  0  0  0  0  0  0  0
    1.4250   -1.9399    0.0000 C   0  0  0  0  0  0  0  0  0  0  0  0
    3.3649   -1.4204    0.0000 C   0  0  0  0  0  0  0  0  0  0  0  0
    2.6570   -2.6524    0.0000 C   0  0  0  0  0  0  0  0  0  0  0  0
    4.0774   -0.1931    0.0000 C   0  0  0  0  0  0  0  0  0  0  0  0
    4.5968   -2.1329    0.0000 C   0  0  0  0  0  0  0  0  0  0  0  0
  1  2  1  0  0  0  0 
  2  3  1  0  0  0  0 
  2  4  1  0  0  0  0 
  3  5  1  0  0  0  0 
  6  4  1  0  0  0  0 
  4  7  1  0  0  0  0 
  5  8  1  0  0  0  0 
  8  6  1  0  0  0  0 
  8  7  1  0  0  0  0 
  7  9  1  0  0  0  0 
  7 10  1  0  0  0  0 
M  END
> <Name>
PINANE

> <Source>
DSSTox2DMolFile

> <Tox>
151

> <CAS>
473-55-2

$$$$

  CDK

 14 16  0  0  0  0  0  0  0  0999 V2000
    2.0085    0.9541    0.0000 C   0  0  0  0  0  0  0  0  0  0  0  0
    2.9626    1.3055    0.0000 C   0  0  0  0  0  0  0  0  0  0  0  0
    1.4060    1.8077    0.0000 C   0  0  0  0  0  0  0  0  0  0  0  0
    1.7575    0.0000    0.0000 O   0  0  0  0  0  0  0  0  0  0  0  0
    2.9626    2.3098    0.0000 C   0  0  0  0  0  0  0  0  0  0  0  0
    3.8162    0.8034    0.0000 C   0  0  0  0  0  0  0  0  0  0  0  0
    2.0085    2.6111    0.0000 C   0  0  0  0  0  0  0  0  0  0  0  0
    0.4017    1.9081    0.0000 C   0  0  0  0  0  0  0  0  0  0  0  0
    3.8162    2.8119    0.0000 C   0  0  0  0  0  0  0  0  0  0  0  0
    4.6698    1.3055    0.0000 C   0  0  0  0  0  0  0  0  0  0  0  0
    1.6068    3.5149    0.0000 C   0  0  0  0  0  0  0  0  0  0  0  0
    0.0000    2.8119    0.0000 C   0  0  0  0  0  0  0  0  0  0  0  0
    4.6698    2.2596    0.0000 C   0  0  0  0  0  0  0  0  0  0  0  0
    0.6026    3.6153    0.0000 C   0  0  0  0  0  0  0  0  0  0  0  0
  2  1  1  0  0  0  0 
  1  3  1  0  0  0  0 
  1  4  2  0  0  0  0 
  5  2  2  0  0  0  0 
  6  2  1  0  0  0  0 
  3  7  2  0  0  0  0 
  3  8  1  0  0  0  0 
  7  5  1  0  0  0  0 
  5  9  1  0  0  0  0 
 10  6  2  0  0  0  0 
 11  7  1  0  0  0  0 
  8 12  2  0  0  0  0 
  9 13  2  0  0  0  0 
 13 10  1  0  0  0  0 
 14 11  2  0  0  0  0 
 12 14  1  0  0  0  0 
M  END
> <Name>
FLUORENONE

> <Source>
NIST2DMolFile

> <Tox>
341.5

> <CAS>
486-25-9

$$$$

  CDK

 11 11  0  0  0  0  0  0  0  0999 V2000
    2.5002    0.8674    0.0000 C   0  0  0  0  0  0  0  0  0  0  0  0
    1.5307    0.8674    0.0000 C   0  0  0  0  0  0  0  0  0  0  0  0
    3.0104    1.7348    0.0000 C   0  0  0  0  0  0  0  0  0  0  0  0
    3.0104    0.0000    0.0000 C   0  0  0  0  0  0  0  0  0  0  0  0
    1.0205    1.7348    0.0000 C   0  0  0  0  0  0  0  0  0  0  0  0
    1.0205    0.0000    0.0000 C   0  0  0  0  0  0  0  0  0  0  0  0
    2.5002    2.6022    0.0000 C   0  0  0  0  0  0  0  0  0  0  0  0
    4.0309    1.7348    0.0000 C   0  0  0  0  0  0  0  0  0  0  0  0
    1.5817    2.6022    0.0000 C   0  0  0  0  0  0  0  0  0  0  0  0
    0.0000    1.7348    0.0000 O   0  0  0  0  0  0  0  0  0  0  0  0
    3.0104    3.4696    0.0000 C   0  0  0  0  0  0  0  0  0  0  0  0
  2  1  2  0  0  0  0 
  1  3  1  0  0  0  0 
  1  4  1  0  0  0  0 
  5  2  1  0  0  0  0 
  2  6  1  0  0  0  0 
  3  7  2  0  0  0  0 
  3  8  1  0  0  0  0 
  9  5  2  0  0  0  0 
  5 10  1  0  0  0  0 
  7  9  1  0  0  0  0 
  7 11  1  0  0  0  0 
M  END
> <Name>
Phenol, 2,3,4,5-tetramethyl-

> <Source>
NIST2DMolFile

> <Tox>
266

> <CAS>
488-70-0

$$$$

  CDK

 11 11  0  0  0  0  0  0  0  0999 V2000
    2.5493    1.7845    0.0000 C   0  0  0  0  0  0  0  0  0  0  0  0
    1.5296    1.7845    0.0000 C   0  0  0  0  0  0  0  0  0  0  0  0
    3.0082    2.6003    0.0000 C   0  0  0  0  0  0  0  0  0  0  0  0
    3.0082    0.9178    0.0000 O   0  0  0  0  0  0  0  0  0  0  0  0
    1.0197    2.6003    0.0000 C   0  0  0  0  0  0  0  0  0  0  0  0
    2.5493    3.5181    0.0000 C   0  0  0  0  0  0  0  0  0  0  0  0
    4.0280    2.6003    0.0000 O   0  0  0  0  0  0  0  0  0  0  0  0
    2.6003    0.0000    0.0000 C   0  0  0  0  0  0  0  0  0  0  0  0
    1.5296    3.5181    0.0000 C   0  0  0  0  0  0  0  0  0  0  0  0
    0.0000    2.6003    0.0000 C   0  0  0  0  0  0  0  0  0  0  0  0
    4.5378    1.7845    0.0000 C   0  0  0  0  0  0  0  0  0  0  0  0
  2  1  2  0  0  0  0 
  1  3  1  0  0  0  0 
  1  4  1  0  0  0  0 
  5  2  1  0  0  0  0 
  3  6  2  0  0  0  0 
  3  7  1  0  0  0  0 
  4  8  1  0  0  0  0 
  9  5  2  0  0  0  0 
  5 10  1  0  0  0  0 
  6  9  1  0  0  0  0 
  7 11  1  0  0  0  0 
M  END
> <Name>
Benzene, 1,2-dimethoxy-4-methyl-

> <Source>
NIST2DMolFile

> <Tox>
220

> <CAS>
494-99-5

$$$$

  CDK

 10 10  0  0  0  0  0  0  0  0999 V2000
    2.4991    0.8997    0.0000 C   0  0  0  0  0  0  0  0  0  0  0  0
    2.9989    0.0000    0.0000 C   0  0  0  0  0  0  0  0  0  0  0  0
    2.9989    1.7493    0.0000 C   0  0  0  0  0  0  0  0  0  0  0  0
    1.4994    0.8997    0.0000 C   0  0  0  0  0  0  0  0  0  0  0  0
    3.9985    1.7493    0.0000 C   0  0  0  0  0  0  0  0  0  0  0  0
    2.4991    2.5990    0.0000 C   0  0  0  0  0  0  0  0  0  0  0  0
    0.9996    1.7493    0.0000 C   0  0  0  0  0  0  0  0  0  0  0  0
    1.4994    2.5990    0.0000 C   0  0  0  0  0  0  0  0  0  0  0  0
    0.0000    1.7493    0.0000 C   0  0  0  0  0  0  0  0  0  0  0  0
    0.9996    3.4987    0.0000 O   0  0  0  0  0  0  0  0  0  0  0  0
  1  2  1  0  0  0  0 
  1  3  2  0  0  0  0 
  4  1  1  0  0  0  0 
  3  5  1  0  0  0  0 
  3  6  1  0  0  0  0 
  7  4  2  0  0  0  0 
  6  8  2  0  0  0  0 
  8  7  1  0  0  0  0 
  7  9  1  0  0  0  0 
  8 10  1  0  0  0  0 
M  END
> <Name>
2,4,5-TRIMETHYLPHENOL

> <Source>
NIST2DMolFile

> <Tox>
232

> <CAS>
496-78-6

$$$$

  CDK

  6  5  0  0  0  0  0  0  0  0999 V2000
   20.0581  -17.7274    0.0000 C   0  0  0  0  0  0  0  0  0  0  0  0
   21.8237  -18.7162    0.0000 O   0  0  0  0  0  0  0  0  0  0  0  0
   18.2218  -18.7162    0.0000 C   0  0  0  0  0  0  0  0  0  0  0  0
   18.2218  -20.8350    0.0000 O   0  0  0  0  0  0  0  0  0  0  0  0
   16.3855  -17.7274    0.0000 C   0  0  0  0  0  0  0  0  0  0  0  0
   14.5492  -18.7162    0.0000 C   0  0  0  0  0  0  0  0  0  0  0  0
  1  2  1  0  0  0  0 
  1  3  1  0  0  0  0 
  3  4  1  0  0  0  0 
  3  5  1  0  0  0  0 
  5  6  2  0  0  0  0 
M  END
> <Name>
3-BUTENE-1,2-DIOL

> <Source>
IndexNet2DMolFile

> <Tox>
196.5

> <CAS>
497-06-3

$$$$

  CDK

 10 10  0  0  0  0  0  0  0  0999 V2000
    3.5040    0.1016    0.0000 C   0  0  0  0  0  0  0  0  0  0  0  0
    2.4884    0.1016    0.0000 C   0  0  0  0  0  0  0  0  0  0  0  0
    4.0118    0.9649    0.0000 C   0  0  0  0  0  0  0  0  0  0  0  0
    2.0313    0.9649    0.0000 C   0  0  0  0  0  0  0  0  0  0  0  0
    3.5040    1.8282    0.0000 C   0  0  0  0  0  0  0  0  0  0  0  0
    2.4884    1.8282    0.0000 C   0  0  0  0  0  0  0  0  0  0  0  0
    1.0157    0.9649    0.0000 C   0  0  0  0  0  0  0  0  0  0  0  0
    1.0157    1.9805    0.0000 Cl  0  0  0  0  0  0  0  0  0  0  0  0
    1.0157    0.0000    0.0000 Cl  0  0  0  0  0  0  0  0  0  0  0  0
    0.0000    0.9649    0.0000 F   0  0  0  0  0  0  0  0  0  0  0  0
  2  1  2  0  0  0  0 
  1  3  1  0  0  0  0 
  4  2  1  0  0  0  0 
  3  5  2  0  0  0  0 
  6  4  2  0  0  0  0 
  4  7  1  0  0  0  0 
  5  6  1  0  0  0  0 
  7  8  1  0  0  0  0 
  7  9  1  0  0  0  0 
  7 10  1  0  0  0  0 
M  END
> <Name>
Benzene, (dichlorofluoromethyl)-

> <Source>
NIST2DMolFile

> <Tox>
179

> <CAS>
498-67-9

$$$$

  CDK

 10 10  0  0  0  0  0  0  0  0999 V2000
    7.6760   -2.6208   -3.8186 O   0  0  0  0  0  0  0  0  0  0  0  0
    6.6923   -1.8097   -3.3425 C   0  0  0  0  0  0  0  0  0  0  0  0
    6.0025   -0.9657   -4.2129 C   0  0  0  0  0  0  0  0  0  0  0  0
    6.3734   -1.8225   -1.9845 C   0  0  0  0  0  0  0  0  0  0  0  0
    4.9941   -0.1343   -3.7255 C   0  0  0  0  0  0  0  0  0  0  0  0
    5.3648   -0.9912   -1.4972 C   0  0  0  0  0  0  0  0  0  0  0  0
    4.6752   -0.1472   -2.3677 C   0  0  0  0  0  0  0  0  0  0  0  0
    3.5970    0.7413   -1.8467 C   0  0  0  0  0  0  0  0  0  0  0  0
    4.1040    2.0919   -1.4116 C   0  0  0  0  0  0  0  0  0  0  0  0
    4.0322    2.5542   -0.1583 C   0  0  0  0  0  0  0  0  0  0  0  0
  1  2  1  0  0  0  0 
  3  2  2  0  0  0  0 
  4  2  1  0  0  0  0 
  5  3  1  0  0  0  0 
  6  4  2  0  0  0  0 
  7  5  2  0  0  0  0 
  7  6  1  0  0  0  0 
  7  8  1  0  0  0  0 
  8  9  1  0  0  0  0 
  9 10  2  0  0  0  0 
M  END
> <Name>
4-(2-PROPENYL)PHENOL

> <Source>
Chemidplus3DMolFile

> <Tox>
238

> <CAS>
501-92-8

$$$$

  CDK

  8  8  0  0  0  0  0  0  0  0999 V2000
    3.2185    1.1063    0.0000 O   0  0  0  0  0  0  0  0  0  0  0  0
    2.2127    1.1063    0.0000 C   0  0  0  0  0  0  0  0  0  0  0  0
    1.7601    2.0115    0.0000 C   0  0  0  0  0  0  0  0  0  0  0  0
    1.7601    0.2012    0.0000 C   0  0  0  0  0  0  0  0  0  0  0  0
    0.8046    2.2127    0.0000 C   0  0  0  0  0  0  0  0  0  0  0  0
    0.8046    0.0000    0.0000 C   0  0  0  0  0  0  0  0  0  0  0  0
    0.0000    1.6092    0.0000 C   0  0  0  0  0  0  0  0  0  0  0  0
    0.0000    0.6035    0.0000 C   0  0  0  0  0  0  0  0  0  0  0  0
  1  2  1  0  0  0  0 
  3  2  1  0  0  0  0 
  2  4  1  0  0  0  0 
  5  3  1  0  0  0  0 
  4  6  1  0  0  0  0 
  7  5  1  0  0  0  0 
  6  8  1  0  0  0  0 
  8  7  1  0  0  0  0 
M  END
> <Name>
CYCLOHEPTANOL

> <Source>
NIST2DMolFile

> <Tox>
185

> <CAS>
502-41-0

$$$$

  CDK

  5  4  0  0  0  0  0  0  0  0999 V2000
    0.0000   -0.0000    0.0000 C   0  0  0  0  0  0  0  0  0  0  0  0
    1.1557   -0.6741    0.0000 C   0  0  0  0  0  0  0  0  0  0  0  0
    2.2930   -0.0000    0.0000 C   0  0  0  0  0  0  0  0  0  0  0  0
    3.4486   -0.6741    0.0000 C   0  0  0  0  0  0  0  0  0  0  0  0
    4.5859   -0.0000    0.0000 C   0  0  0  0  0  0  0  0  0  0  0  0
  1  2  2  0  0  0  0 
  2  3  1  0  0  0  0 
  3  4  2  0  0  0  0 
  4  5  1  0  0  0  0 
M  END
> <Name>
1,3-PENTADIENE

> <Source>
DSSTox2DMolFile

> <Tox>
42

> <CAS>
504-60-9

$$$$

  CDK

  5  4  0  0  0  0  0  0  0  0999 V2000
    2.5792    0.5456    0.0000 C   0  0  0  0  0  0  0  0  0  0  0  0
    1.7360    0.0496    0.0000 C   0  0  0  0  0  0  0  0  0  0  0  0
    3.4720    0.0000    0.0000 C   0  0  0  0  0  0  0  0  0  0  0  0
    0.8928    0.4960    0.0000 C   0  0  0  0  0  0  0  0  0  0  0  0
    0.0000    0.0000    0.0000 O   0  0  0  0  0  0  0  0  0  0  0  0
  1  2  2  0  0  0  0 
  1  3  1  0  0  0  0 
  2  4  1  0  0  0  0 
  4  5  1  0  0  0  0 
M  END
> <Name>
2-Buten-1-ol, (E)-

> <Source>
NIST2DMolFile

> <Tox>
121.2

> <CAS>
504-61-0

$$$$

  CDK

  5  4  0  0  0  0  0  0  0  0999 V2000
   -2.3763    0.0001    0.0000 O   0  0  0  0  0  0  0  0  0  0  0  0
   -1.2002   -0.0001    0.0000 C   0  0  0  0  0  0  0  0  0  0  0  0
    0.0000    0.0001    0.0000 C   0  0  0  0  0  0  0  0  0  0  0  0
    1.2002    0.0000    0.0000 C   0  0  0  0  0  0  0  0  0  0  0  0
    2.3763    0.0000    0.0000 O   0  0  0  0  0  0  0  0  0  0  0  0
  1  2  2  0  0  0  0 
  3  2  2  0  0  0  0 
  3  4  2  0  0  0  0 
  5  4  2  0  0  0  0 
M  END
> <Name>
1,2-PROPADIENE-1,3-DIONE

> <Source>
Chemidplus3DMolFile

> <Tox>
6.8

> <CAS>
504-64-3

$$$$

  CDK

 19 18  0  0  0  0  0  0  0  0999 V2000
   16.1417   -0.0000    0.0000 O   0  0  0  0  0  0  0  0  0  0  0  0
   17.2854   -0.6641    0.0000 C   0  0  0  0  0  0  0  0  0  0  0  0
   18.4476   -0.0000    0.0000 O   0  0  0  0  0  0  0  0  0  0  0  0
   17.2854   -1.9923    0.0000 C   0  0  0  0  0  0  0  0  0  0  0  0
   16.1417   -2.6565    0.0000 C   0  0  0  0  0  0  0  0  0  0  0  0
   14.9795   -1.9923    0.0000 C   0  0  0  0  0  0  0  0  0  0  0  0
   13.8357   -2.6565    0.0000 C   0  0  0  0  0  0  0  0  0  0  0  0
   12.6735   -1.9923    0.0000 C   0  0  0  0  0  0  0  0  0  0  0  0
   11.5298   -2.6565    0.0000 C   0  0  0  0  0  0  0  0  0  0  0  0
   10.3676   -1.9923    0.0000 C   0  0  0  0  0  0  0  0  0  0  0  0
    9.2238   -2.6565    0.0000 C   0  0  0  0  0  0  0  0  0  0  0  0
    8.0801   -1.9923    0.0000 C   0  0  0  0  0  0  0  0  0  0  0  0
    6.9179   -2.6565    0.0000 C   0  0  0  0  0  0  0  0  0  0  0  0
    5.7557   -1.9923    0.0000 C   0  0  0  0  0  0  0  0  0  0  0  0
    4.6119   -2.6565    0.0000 C   0  0  0  0  0  0  0  0  0  0  0  0
    3.4682   -1.9923    0.0000 C   0  0  0  0  0  0  0  0  0  0  0  0
    2.3060   -2.6565    0.0000 C   0  0  0  0  0  0  0  0  0  0  0  0
    1.1438   -1.9923    0.0000 C   0  0  0  0  0  0  0  0  0  0  0  0
    0.0000   -2.6565    0.0000 C   0  0  0  0  0  0  0  0  0  0  0  0
  1  2  2  0  0  0  0 
  2  3  1  0  0  0  0 
  2  4  1  0  0  0  0 
  4  5  1  0  0  0  0 
  5  6  1  0  0  0  0 
  6  7  1  0  0  0  0 
  7  8  1  0  0  0  0 
  8  9  1  0  0  0  0 
  9 10  1  0  0  0  0 
 10 11  1  0  0  0  0 
 11 12  1  0  0  0  0 
 12 13  1  0  0  0  0 
 13 14  1  0  0  0  0 
 14 15  1  0  0  0  0 
 15 16  1  0  0  0  0 
 16 17  1  0  0  0  0 
 17 18  1  0  0  0  0 
 18 19  1  0  0  0  0 
M  END
> <Name>
HEPTADECANOIC ACID

> <Source>
DSSTox2DMolFile

> <Tox>
363.8

> <CAS>
506-12-7

$$$$

  CDK

 22 21  0  0  0  0  0  0  0  0999 V2000
    0.0000    0.0000    0.0000 C   0  0  0  0  0  0  0  0  0  0  0  0
    1.5400   -0.1000    0.0000 C   0  0  0  0  0  0  0  0  0  0  0  0
   -0.6000   -0.6600   -1.2400 C   0  0  0  0  0  0  0  0  0  0  0  0
    2.1600    0.8800    1.0200 C   0  0  0  0  0  0  0  0  0  0  0  0
   -2.0800   -0.2800   -1.4400 C   0  0  0  0  0  0  0  0  0  0  0  0
    3.6800    1.0000    0.8200 C   0  0  0  0  0  0  0  0  0  0  0  0
   -2.6200   -0.6800   -2.8200 C   0  0  0  0  0  0  0  0  0  0  0  0
    4.2400    2.2800    1.4800 C   0  0  0  0  0  0  0  0  0  0  0  0
   -4.0000   -0.1000   -3.1000 C   0  0  0  0  0  0  0  0  0  0  0  0
    5.7400    2.4800    1.1800 C   0  0  0  0  0  0  0  0  0  0  0  0
   -4.4600   -0.3400   -4.5400 C   0  0  0  0  0  0  0  0  0  0  0  0
    6.2000    3.9200    1.4000 C   0  0  0  0  0  0  0  0  0  0  0  0
   -5.7400    0.4000   -4.8800 C   0  0  0  0  0  0  0  0  0  0  0  0
    7.7000    4.1000    1.2000 C   0  0  0  0  0  0  0  0  0  0  0  0
   -6.1600    0.2200   -6.3400 C   0  0  0  0  0  0  0  0  0  0  0  0
    8.1200    5.5600    1.2800 C   0  0  0  0  0  0  0  0  0  0  0  0
   -7.3800    1.0600   -6.7200 C   0  0  0  0  0  0  0  0  0  0  0  0
    9.6400    5.7400    1.1200 C   0  0  0  0  0  0  0  0  0  0  0  0
   10.0600    7.2000    1.0000 C   0  0  0  0  0  0  0  0  0  0  0  0
    9.7000    8.0000    2.2200 C   0  0  0  0  0  0  0  0  0  0  0  0
   10.2200    7.7800    3.3000 O   0  0  0  0  0  0  0  0  0  0  0  0
    8.7800    8.9400    2.0200 O   0  0  0  0  0  0  0  0  0  0  0  0
  1  2  1  0  0  0  0 
  1  3  1  0  0  0  0 
  2  4  1  0  0  0  0 
  3  5  1  0  0  0  0 
  4  6  1  0  0  0  0 
  5  7  1  0  0  0  0 
  6  8  1  0  0  0  0 
  7  9  1  0  0  0  0 
  8 10  1  0  0  0  0 
  9 11  1  0  0  0  0 
 10 12  1  0  0  0  0 
 11 13  1  0  0  0  0 
 12 14  1  0  0  0  0 
 13 15  1  0  0  0  0 
 14 16  1  0  0  0  0 
 15 17  1  0  0  0  0 
 16 18  1  0  0  0  0 
 18 19  1  0  0  0  0 
 19 20  1  0  0  0  0 
 20 21  2  0  0  0  0 
 20 22  1  0  0  0  0 
M  END
> <Name>
EICOSANOIC ACID

> <Source>
NIH3DMolFile

> <Tox>
328

> <CAS>
506-30-9

$$$$

  CDK

  4  3  0  0  0  0  0  0  0  0999 V2000
    1.1440   -0.1198    0.0002 C   0  0  0  0  0  0  0  0  0  0  0  0
    1.6607   -1.1867   -0.0001 O   0  0  0  0  0  0  0  0  0  0  0  0
    1.6457    1.2693    0.0000 C   0  0  0  0  0  0  0  0  0  0  0  0
   -0.8184    0.0027    0.0000 Br  0  0  0  0  0  0  0  0  0  0  0  0
  1  2  2  0  0  0  0 
  1  3  1  0  0  0  0 
  1  4  1  0  0  0  0 
M  END
> <Name>
ACETYL BROMIDE

> <Source>
DougDB3DMolFile

> <Tox>
76

> <CAS>
506-96-7

$$$$

  CDK

  5  4  0  0  0  0  0  0  0  0999 V2000
    2.6600   -1.3380    0.0000 C   0  0  0  0  0  0  0  0  0  0  0  0
    1.3380   -1.3380    0.0000 C   0  0  0  0  0  0  0  0  0  0  0  0
    1.3380   -2.6600    0.0000 C   0  0  0  0  0  0  0  0  0  0  0  0
    0.0000   -1.3380    0.0000 C   0  0  0  0  0  0  0  0  0  0  0  0
    1.3380   -0.0000    0.0000 Cl  0  0  0  0  0  0  0  0  0  0  0  0
  1  2  1  0  0  0  0 
  3  2  1  0  0  0  0 
  4  2  1  0  0  0  0 
  2  5  1  0  0  0  0 
M  END
> <Name>
T-BUTYL CHLORIDE

> <Source>
DSSTox2DMolFile

> <Tox>
50.9

> <CAS>
507-20-0

$$$$

  CDK

  7  6  0  0  0  0  0  0  0  0999 V2000
    1.2127    3.3115    0.0000 Cl  0  0  0  0  0  0  0  0  0  0  0  0
    1.2127    1.9123    0.0000 C   0  0  0  0  0  0  0  0  0  0  0  0
    0.0000    1.2127    0.0000 C   0  0  0  0  0  0  0  0  0  0  0  0
    2.4253    1.2127    0.0000 C   0  0  0  0  0  0  0  0  0  0  0  0
    3.6380    1.9123    0.0000 C   0  0  0  0  0  0  0  0  0  0  0  0
    3.1249    0.0000    0.0000 C   0  0  0  0  0  0  0  0  0  0  0  0
    1.7257    0.0000    0.0000 Cl  0  0  0  0  0  0  0  0  0  0  0  0
  1  2  1  0  0  0  0 
  2  3  1  0  0  0  0 
  2  4  1  0  0  0  0 
  4  5  1  0  0  0  0 
  4  6  1  0  0  0  0 
  4  7  1  0  0  0  0 
M  END
> <Name>
BUTANE, 2,3-DICHLORO-2-METHYL-

> <Source>
IndexNet2DMolFile

> <Tox>
129

> <CAS>
507-45-9

$$$$

  CDK

 10  9  0  0  0  0  0  0  0  0999 V2000
    1.0087    2.0174    0.0000 F   0  0  0  0  0  0  0  0  0  0  0  0
    1.0087    1.0087    0.0000 C   0  0  0  0  0  0  0  0  0  0  0  0
    1.0087    0.0000    0.0000 Cl  0  0  0  0  0  0  0  0  0  0  0  0
    0.0000    1.0087    0.0000 F   0  0  0  0  0  0  0  0  0  0  0  0
    2.0174    1.0087    0.0000 C   0  0  0  0  0  0  0  0  0  0  0  0
    3.0261    1.0087    0.0000 C   0  0  0  0  0  0  0  0  0  0  0  0
    2.0174    2.0174    0.0000 F   0  0  0  0  0  0  0  0  0  0  0  0
    2.0174    0.0504    0.0000 F   0  0  0  0  0  0  0  0  0  0  0  0
    3.5305    1.8661    0.0000 F   0  0  0  0  0  0  0  0  0  0  0  0
    3.5305    0.1513    0.0000 Cl  0  0  0  0  0  0  0  0  0  0  0  0
  1  2  1  0  0  0  0 
  2  3  1  0  0  0  0 
  2  4  1  0  0  0  0 
  2  5  1  0  0  0  0 
  5  6  1  0  0  0  0 
  5  7  1  0  0  0  0 
  5  8  1  0  0  0  0 
  6  9  1  0  0  0  0 
  6 10  1  0  0  0  0 
M  END
> <Name>
1,3-DICHLORO-1,2,2,3,3-PENTAFLUOROPROPANE

> <Source>
NIST2DMolFile

> <Tox>
56.1

> <CAS>
507-55-1

$$$$

  CDK

 26 25  0  0  0  0  0  0  0  0999 V2000
   -3.3505   -2.6652   -0.4009 I   0  0  0  0  0  0  0  0  0  0  0  0
   -3.7016   -0.6319   -0.0672 C   0  0  0  0  0  0  0  0  0  0  0  0
   -4.3086   -0.0961   -1.1581 F   0  0  0  0  0  0  0  0  0  0  0  0
   -4.6050   -0.5345    0.9490 F   0  0  0  0  0  0  0  0  0  0  0  0
   -2.4912    0.2096    0.3063 C   0  0  0  0  0  0  0  0  0  0  0  0
   -2.9527    1.4637    0.5880 F   0  0  0  0  0  0  0  0  0  0  0  0
   -1.9674   -0.2654    1.4641 F   0  0  0  0  0  0  0  0  0  0  0  0
   -1.4000    0.3424   -0.7531 C   0  0  0  0  0  0  0  0  0  0  0  0
   -1.9527    0.9220   -1.8591 F   0  0  0  0  0  0  0  0  0  0  0  0
   -0.9792   -0.8834   -1.1487 F   0  0  0  0  0  0  0  0  0  0  0  0
   -0.1892    1.1872   -0.3723 C   0  0  0  0  0  0  0  0  0  0  0  0
    0.6219    1.2626   -1.4648 F   0  0  0  0  0  0  0  0  0  0  0  0
   -0.6193    2.4644   -0.1526 F   0  0  0  0  0  0  0  0  0  0  0  0
    0.6520    0.7791    0.8289 C   0  0  0  0  0  0  0  0  0  0  0  0
   -0.1249    0.8538    1.9470 F   0  0  0  0  0  0  0  0  0  0  0  0
    1.6124    1.7312    1.0038 F   0  0  0  0  0  0  0  0  0  0  0  0
    1.3227   -0.5874    0.8221 C   0  0  0  0  0  0  0  0  0  0  0  0
    0.3575   -1.5483    0.8061 F   0  0  0  0  0  0  0  0  0  0  0  0
    1.9602   -0.7327    2.0212 F   0  0  0  0  0  0  0  0  0  0  0  0
    2.3217   -0.9140   -0.2778 C   0  0  0  0  0  0  0  0  0  0  0  0
    1.6989   -0.9335   -1.4824 F   0  0  0  0  0  0  0  0  0  0  0  0
    2.7609   -2.1884   -0.0637 F   0  0  0  0  0  0  0  0  0  0  0  0
    3.5366   -0.0243   -0.3709 C   0  0  0  0  0  0  0  0  0  0  0  0
    4.2432   -0.0743    0.7812 F   0  0  0  0  0  0  0  0  0  0  0  0
    3.1884    1.2626   -0.5809 F   0  0  0  0  0  0  0  0  0  0  0  0
    4.3660   -0.3992   -1.3651 F   0  0  0  0  0  0  0  0  0  0  0  0
  1  2  1  0  0  0  0 
  3  2  1  0  0  0  0 
  4  2  1  0  0  0  0 
  5  2  1  0  0  0  0 
  6  5  1  0  0  0  0 
  7  5  1  0  0  0  0 
  8  5  1  0  0  0  0 
  9  8  1  0  0  0  0 
 10  8  1  0  0  0  0 
 11  8  1  0  0  0  0 
 12 11  1  0  0  0  0 
 13 11  1  0  0  0  0 
 11 14  1  0  0  0  0 
 15 14  1  0  0  0  0 
 16 14  1  0  0  0  0 
 14 17  1  0  0  0  0 
 18 17  1  0  0  0  0 
 19 17  1  0  0  0  0 
 17 20  1  0  0  0  0 
 21 20  1  0  0  0  0 
 22 20  1  0  0  0  0 
 20 23  1  0  0  0  0 
 24 23  1  0  0  0  0 
 25 23  1  0  0  0  0 
 26 23  1  0  0  0  0 
M  END
> <Name>
Octane, heptadecafluoro-8-iodo-

> <Source>
Chemidplus3DMolFile

> <Tox>
160.5

> <CAS>
507-63-1

$$$$

  CDK

 10 12  0  0  0  0  0  0  0  0999 V2000
    3.0271    2.9779    0.9708 C   0  0  0  0  0  0  0  0  0  0  0  0
    4.0743    3.0748    2.0781 C   0  0  0  0  0  0  0  0  0  0  0  0
    2.1371    1.8890    1.6256 C   0  0  0  0  0  0  0  0  0  0  0  0
    3.3580    2.7798    3.3909 C   0  0  0  0  0  0  0  0  0  0  0  0
    4.1786    1.6954    2.7021 C   0  0  0  0  0  0  0  0  0  0  0  0
    1.8698    2.5106    3.0444 C   0  0  0  0  0  0  0  0  0  0  0  0
    3.1916    0.8004    1.9557 C   0  0  0  0  0  0  0  0  0  0  0  0
    3.7363    3.3954    4.6886 C   0  0  0  0  0  0  0  0  0  0  0  0
    1.2112    1.5256    3.9957 C   0  0  0  0  0  0  0  0  0  0  0  0
    1.0407    3.7821    2.9746 C   0  0  0  0  0  0  0  0  0  0  0  0
  1  2  1  0  0  0  0 
  3  1  1  0  0  0  0 
  4  2  1  0  0  0  0 
  2  5  1  0  0  0  0 
  3  6  1  0  0  0  0 
  7  3  1  0  0  0  0 
  6  4  1  0  0  0  0 
  5  4  1  0  0  0  0 
  4  8  1  0  0  0  0 
  5  7  1  0  0  0  0 
  6  9  1  0  0  0  0 
  6 10  1  0  0  0  0 
M  END
> <Name>
Tricyclene

> <Source>
NIST3DMolFile

> <Tox>
152.5

> <CAS>
508-32-7

$$$$

  CDK

  8  7  0  0  0  0  0  0  0  0999 V2000
    3.3237   -1.9950    0.0000 O   0  0  0  0  0  0  0  0  0  0  0  0
    1.9950   -1.9950    0.0000 P   0  0  0  0  0  0  0  0  0  0  0  0
    1.9950   -3.3237    0.0000 O   0  0  0  0  0  0  0  0  0  0  0  0
    0.6663   -1.9950    0.0000 O   0  0  0  0  0  0  0  0  0  0  0  0
    1.9950   -0.6663    0.0000 O   0  0  0  0  0  0  0  0  0  0  0  0
    3.1481   -3.9900    0.0000 C   0  0  0  0  0  0  0  0  0  0  0  0
    0.0000   -3.1481    0.0000 C   0  0  0  0  0  0  0  0  0  0  0  0
    3.1481   -0.0000    0.0000 C   0  0  0  0  0  0  0  0  0  0  0  0
  1  2  2  0  0  0  0 
  2  3  1  0  0  0  0 
  2  4  1  0  0  0  0 
  2  5  1  0  0  0  0 
  3  6  1  0  0  0  0 
  4  7  1  0  0  0  0 
  5  8  1  0  0  0  0 
M  END
> <Name>
TRIMETHYL PHOSPHATE

> <Source>
DSSTox2DMolFile

> <Tox>
197.2

> <CAS>
512-56-1

$$$$

  CDK

  5  4  0  0  0  0  0  0  0  0999 V2000
    0.0000   -0.0000    0.0000 C   0  0  0  0  0  0  0  0  0  0  0  0
    0.6604   -1.1577    0.0000 C   0  0  0  0  0  0  0  0  0  0  0  0
    1.9972   -1.1577    0.0000 C   0  0  0  0  0  0  0  0  0  0  0  0
    0.0000   -2.3020    0.0000 C   0  0  0  0  0  0  0  0  0  0  0  0
    2.6736   -2.3020    0.0000 C   0  0  0  0  0  0  0  0  0  0  0  0
  1  2  1  0  0  0  0 
  2  3  2  0  0  0  0 
  2  4  1  0  0  0  0 
  3  5  1  0  0  0  0 
M  END
> <Name>
2-METHYL-2-BUTENE

> <Source>
DSSTox2DMolFile

> <Tox>
38.5

> <CAS>
513-35-9

$$$$

  CDK

  6  5  0  0  0  0  0  0  0  0999 V2000
    1.3307   -0.0000    0.0000 C   0  0  0  0  0  0  0  0  0  0  0  0
    1.9943   -1.1509    0.0000 C   0  0  0  0  0  0  0  0  0  0  0  0
    1.3307   -2.3053    0.0000 C   0  0  0  0  0  0  0  0  0  0  0  0
    3.3250   -1.1509    0.0000 O   0  0  0  0  0  0  0  0  0  0  0  0
    1.9943   -3.4563    0.0000 Cl  0  0  0  0  0  0  0  0  0  0  0  0
    0.0000   -2.3053    0.0000 Cl  0  0  0  0  0  0  0  0  0  0  0  0
  1  2  1  0  0  0  0 
  2  3  1  0  0  0  0 
  2  4  2  0  0  0  0 
  3  5  1  0  0  0  0 
  3  6  1  0  0  0  0 
M  END
> <Name>
1,1-DICHLOROPROPANONE

> <Source>
DSSTox2DMolFile

> <Tox>
120

> <CAS>
513-88-2

$$$$

  CDK

 11 12  0  0  0  0  0  0  0  0999 V2000
    3.4590    2.1364    0.0000 C   0  0  0  0  0  0  0  0  0  0  0  0
    2.8825    1.7973    0.0000 C   0  0  0  0  0  0  0  0  0  0  0  0
    3.2216    1.1869    0.0000 C   0  0  0  0  0  0  0  0  0  0  0  0
    1.6617    1.9330    0.0000 C   0  0  0  0  0  0  0  0  0  0  0  0
    1.8312    2.6112    0.0000 C   0  0  0  0  0  0  0  0  0  0  0  0
    0.6104    1.1191    0.0000 C   0  0  0  0  0  0  0  0  0  0  0  0
    1.3225    3.2555    0.0000 C   0  0  0  0  0  0  0  0  0  0  0  0
    0.0678    2.0686    0.0000 C   0  0  0  0  0  0  0  0  0  0  0  0
    0.7461    0.4408    0.0000 C   0  0  0  0  0  0  0  0  0  0  0  0
    0.0000    1.3904    0.0000 C   0  0  0  0  0  0  0  0  0  0  0  0
    0.2374    0.0000    0.0000 O   0  0  0  0  0  0  0  0  0  0  0  0
  1  2  1  0  0  0  0 
  2  3  1  0  0  0  0 
  2  4  1  0  0  0  0 
  5  2  1  0  0  0  0 
  4  6  1  0  0  0  0 
  4  7  1  0  0  0  0 
  7  5  1  0  0  0  0 
  8  5  1  0  0  0  0 
  6  9  1  0  0  0  0 
  6 10  2  0  0  0  0 
 10  8  1  0  0  0  0 
  9 11  1  0  0  0  0 
M  END
> <Name>
(1R)-(-)-Myrtenol

> <Source>
NIST2DMolFile

> <Tox>
221.5

> <CAS>
515-00-4

$$$$

  CDK

  9  8  0  0  0  0  0  0  0  0999 V2000
    0.5041    0.6514   -0.5849 C   0  0  0  0  0  0  0  0  0  0  0  0
   -0.7371   -0.0862   -0.0361 C   0  0  0  0  0  0  0  0  0  0  0  0
    1.6296    0.1406    0.0974 O   0  0  0  0  0  0  0  0  0  0  0  0
    0.4897    2.0145   -0.3141 O   0  0  0  0  0  0  0  0  0  0  0  0
   -0.6174   -1.8075   -0.3303 Cl  0  0  0  0  0  0  0  0  0  0  0  0
   -2.1801    0.5119   -0.8404 Cl  0  0  0  0  0  0  0  0  0  0  0  0
   -0.9192    0.1822    1.6883 Cl  0  0  0  0  0  0  0  0  0  0  0  0
    2.8256    0.1015   -0.6744 C   0  0  0  0  0  0  0  0  0  0  0  0
    3.9260   -0.3932    0.2441 C   0  0  0  0  0  0  0  0  0  0  0  0
  1  2  1  0  0  0  0 
  1  3  1  0  0  0  0 
  1  4  1  0  0  0  0 
  2  5  1  0  0  0  0 
  2  6  1  0  0  0  0 
  2  7  1  0  0  0  0 
  3  8  1  0  0  0  0 
  8  9  1  0  0  0  0 
M  END
> <Name>
Ethanol, 2,2,2-trichloro-1-ethoxy-

> <Source>
DougDB3DMolFile

> <Tox>
115.5

> <CAS>
515-83-3

$$$$

  CDK

  8  8  0  0  0  0  0  0  0  0999 V2000
    1.6317    1.4787    0.0000 C   0  0  0  0  0  0  0  0  0  0  0  0
    0.8158    0.9688    0.0000 O   0  0  0  0  0  0  0  0  0  0  0  0
    1.3257    2.4985    0.0000 C   0  0  0  0  0  0  0  0  0  0  0  0
    2.4475    1.0198    0.0000 C   0  0  0  0  0  0  0  0  0  0  0  0
    0.0000    1.5297    0.0000 C   0  0  0  0  0  0  0  0  0  0  0  0
    0.3569    2.4985    0.0000 C   0  0  0  0  0  0  0  0  0  0  0  0
    2.4475    0.0000    0.0000 Cl  0  0  0  0  0  0  0  0  0  0  0  0
    3.3653    1.4787    0.0000 O   0  0  0  0  0  0  0  0  0  0  0  0
  1  2  1  0  0  0  0 
  3  1  2  0  0  0  0 
  1  4  1  0  0  0  0 
  2  5  1  0  0  0  0 
  6  3  1  0  0  0  0 
  4  7  1  0  0  0  0 
  4  8  2  0  0  0  0 
  5  6  2  0  0  0  0 
M  END
> <Name>
2-Furancarbonyl chloride

> <Source>
NIST2DMolFile

> <Tox>
173

> <CAS>
527-69-5

$$$$

  CDK

 14 14  0  0  0  0  0  0  0  0999 V2000
    1.8005    1.5440    0.0109 C   0  0  0  0  0  0  0  0  0  0  0  0
    2.6249    1.7050    1.2897 C   0  0  0  0  0  0  0  0  0  0  0  0
    2.7145    1.6925   -1.2071 C   0  0  0  0  0  0  0  0  0  0  0  0
    1.1597    0.1801   -0.0053 C   0  0  0  0  0  0  0  0  0  0  0  0
   -0.2216    0.0627   -0.0542 C   0  0  0  0  0  0  0  0  0  0  0  0
    1.9476   -0.9545    0.0230 C   0  0  0  0  0  0  0  0  0  0  0  0
   -0.9987    1.1774   -0.0882 O   0  0  0  0  0  0  0  0  0  0  0  0
   -0.8086   -1.1944   -0.0690 C   0  0  0  0  0  0  0  0  0  0  0  0
    1.3603   -2.2059    0.0082 C   0  0  0  0  0  0  0  0  0  0  0  0
   -2.3320    1.0701    0.0288 C   0  0  0  0  0  0  0  0  0  0  0  0
   -0.0167   -2.3255   -0.0348 C   0  0  0  0  0  0  0  0  0  0  0  0
   -3.2046    2.2851   -0.1534 C   0  0  0  0  0  0  0  0  0  0  0  0
   -2.8321   -0.0007    0.2802 O   0  0  0  0  0  0  0  0  0  0  0  0
   -0.6536   -3.6912   -0.0503 C   0  0  0  0  0  0  0  0  0  0  0  0
  1  2  1  0  0  0  0 
  1  3  1  0  0  0  0 
  1  4  1  0  0  0  0 
  4  5  2  0  0  0  0 
  4  6  1  0  0  0  0 
  5  7  1  0  0  0  0 
  5  8  1  0  0  0  0 
  6  9  2  0  0  0  0 
  7 10  1  0  0  0  0 
  8 11  2  0  0  0  0 
  9 11  1  0  0  0  0 
 10 12  1  0  0  0  0 
 10 13  2  0  0  0  0 
 11 14  1  0  0  0  0 
M  END
> <Name>
Phenol, 5-methyl-2-(1-methylethyl)-, acetate

> <Source>
NIH3DMolFile

> <Tox>
245

> <CAS>
528-79-0

$$$$

  CDK

 11 12  0  0  0  0  0  0  0  0999 V2000
   -2.0616   -2.3905    0.0010 S   0  0  0  0  0  0  0  0  0  0  0  0
   -1.3804   -0.7241   -0.0006 C   0  0  0  0  0  0  0  0  0  0  0  0
   -0.0060   -0.4360   -0.0003 C   0  0  0  0  0  0  0  0  0  0  0  0
   -2.3232    0.3042   -0.0004 C   0  0  0  0  0  0  0  0  0  0  0  0
    0.4183    0.9142    0.0001 C   0  0  0  0  0  0  0  0  0  0  0  0
    0.9569   -1.4584   -0.0005 C   0  0  0  0  0  0  0  0  0  0  0  0
   -1.9061    1.6320    0.0000 C   0  0  0  0  0  0  0  0  0  0  0  0
   -0.5447    1.9366    0.0003 C   0  0  0  0  0  0  0  0  0  0  0  0
    1.7928    1.2022    0.0004 C   0  0  0  0  0  0  0  0  0  0  0  0
    2.3185   -1.1540   -0.0002 C   0  0  0  0  0  0  0  0  0  0  0  0
    2.7355    0.1738    0.0002 C   0  0  0  0  0  0  0  0  0  0  0  0
  1  2  1  0  0  0  0 
  3  2  1  0  0  0  0 
  2  4  2  0  0  0  0 
  3  5  1  0  0  0  0 
  3  6  2  0  0  0  0 
  4  7  1  0  0  0  0 
  5  8  1  0  0  0  0 
  5  9  2  0  0  0  0 
  6 10  1  0  0  0  0 
  8  7  2  0  0  0  0 
  9 11  1  0  0  0  0 
 10 11  2  0  0  0  0 
M  END
> <Name>
1-Naphthalenethiol

> <Source>
Chemidplus3DMolFile

> <Tox>
285

> <CAS>
529-36-2

$$$$

  CDK

  6  6  0  0  0  0  0  0  0  0999 V2000
    3.5467    1.1200    0.0000 C   0  0  0  0  0  0  0  0  0  0  0  0
    2.1467    1.1200    0.0000 C   0  0  0  0  0  0  0  0  0  0  0  0
    1.3067    0.0000    0.0000 N   0  0  0  0  0  0  0  0  0  0  0  0
    1.3067    2.2400    0.0000 N   0  0  0  0  0  0  0  0  0  0  0  0
    0.0000    0.4200    0.0000 C   0  0  0  0  0  0  0  0  0  0  0  0
    0.0000    1.8200    0.0000 C   0  0  0  0  0  0  0  0  0  0  0  0
  1  2  1  0  0  0  0 
  2  3  2  0  0  0  0 
  2  4  1  0  0  0  0 
  3  5  1  0  0  0  0 
  6  4  1  0  0  0  0 
  5  6  1  0  0  0  0 
M  END
> <Name>
2-METHYL-2-IMIDAZOLINE

> <Source>
IndexNet2DMolFile

> <Tox>
196.5

> <CAS>
534-26-9

$$$$

  CDK

 11 11  0  0  0  0  0  0  0  0999 V2000
    0.0503    1.7111    0.0000 C   0  0  0  0  0  0  0  0  0  0  0  0
    0.5033    0.8555    0.0000 C   0  0  0  0  0  0  0  0  0  0  0  0
    0.0000    0.0000    0.0000 C   0  0  0  0  0  0  0  0  0  0  0  0
    1.5601    0.8555    0.0000 C   0  0  0  0  0  0  0  0  0  0  0  0
    2.0634    1.7111    0.0000 C   0  0  0  0  0  0  0  0  0  0  0  0
    2.0634    0.0000    0.0000 C   0  0  0  0  0  0  0  0  0  0  0  0
    3.0699    1.7111    0.0000 C   0  0  0  0  0  0  0  0  0  0  0  0
    3.0699    0.0000    0.0000 C   0  0  0  0  0  0  0  0  0  0  0  0
    3.5732    0.8555    0.0000 C   0  0  0  0  0  0  0  0  0  0  0  0
    4.5797    0.8555    0.0000 C   0  0  0  0  0  0  0  0  0  0  0  0
    5.0829    1.7111    0.0000 O   0  0  0  0  0  0  0  0  0  0  0  0
  1  2  1  0  0  0  0 
  2  3  2  0  0  0  0 
  2  4  1  0  0  0  0 
  5  4  1  0  0  0  0 
  4  6  1  0  0  0  0 
  7  5  1  0  0  0  0 
  6  8  1  0  0  0  0 
  9  7  1  0  0  0  0 
  8  9  2  0  0  0  0 
  9 10  1  0  0  0  0 
 10 11  1  0  0  0  0 
M  END
> <Name>
1-Cyclohexene-1-methanol, 4-(1-methylethenyl)-

> <Source>
NIST2DMolFile

> <Tox>
244

> <CAS>
536-59-4

$$$$

  CDK

 11 11  0  0  0  0  0  0  0  0999 V2000
    2.3008   -2.6601    0.0000 N   0  0  0  0  0  0  0  0  0  0  0  0
    1.1539   -1.9968    0.0000 C   0  0  0  0  0  0  0  0  0  0  0  0
    3.4547   -1.9968    0.0000 C   0  0  0  0  0  0  0  0  0  0  0  0
    0.0000   -2.6601    0.0000 C   0  0  0  0  0  0  0  0  0  0  0  0
    1.1539   -0.6633    0.0000 O   0  0  0  0  0  0  0  0  0  0  0  0
    3.4547   -0.6633    0.0000 C   0  0  0  0  0  0  0  0  0  0  0  0
    4.6086   -2.6601    0.0000 C   0  0  0  0  0  0  0  0  0  0  0  0
    4.6086   -0.0000    0.0000 C   0  0  0  0  0  0  0  0  0  0  0  0
    5.7555   -1.9968    0.0000 C   0  0  0  0  0  0  0  0  0  0  0  0
    5.7555   -0.6633    0.0000 C   0  0  0  0  0  0  0  0  0  0  0  0
    6.9094   -2.6601    0.0000 C   0  0  0  0  0  0  0  0  0  0  0  0
  1  2  1  0  0  0  0 
  1  3  1  0  0  0  0 
  2  4  1  0  0  0  0 
  2  5  2  0  0  0  0 
  3  6  2  0  0  0  0 
  3  7  1  0  0  0  0 
  6  8  1  0  0  0  0 
  9  7  2  0  0  0  0 
  8 10  2  0  0  0  0 
 10  9  1  0  0  0  0 
  9 11  1  0  0  0  0 
M  END
> <Name>
3-METHYLACETANILIDE

> <Source>
DSSTox2DMolFile

> <Tox>
303

> <CAS>
537-92-8

$$$$

  CDK

 33 32  0  0  0  0  0  0  0  0999 V2000
    5.7724   -7.3216    0.0000 O   0  0  0  0  0  0  0  0  0  0  0  0
    6.9158   -7.9855    0.0000 C   0  0  0  0  0  0  0  0  0  0  0  0
    8.0777   -7.3216    0.0000 O   0  0  0  0  0  0  0  0  0  0  0  0
    6.9158   -9.3133    0.0000 C   0  0  0  0  0  0  0  0  0  0  0  0
    8.0777   -5.9753    0.0000 C   0  0  0  0  0  0  0  0  0  0  0  0
    5.7724   -9.9773    0.0000 C   0  0  0  0  0  0  0  0  0  0  0  0
    9.2211   -5.3114    0.0000 C   0  0  0  0  0  0  0  0  0  0  0  0
    6.9158   -5.3114    0.0000 C   0  0  0  0  0  0  0  0  0  0  0  0
    4.6106   -9.3133    0.0000 C   0  0  0  0  0  0  0  0  0  0  0  0
   10.3645   -5.9753    0.0000 O   0  0  0  0  0  0  0  0  0  0  0  0
    5.7724   -5.9753    0.0000 O   0  0  0  0  0  0  0  0  0  0  0  0
    3.4487   -9.9773    0.0000 C   0  0  0  0  0  0  0  0  0  0  0  0
   11.5264   -5.3114    0.0000 C   0  0  0  0  0  0  0  0  0  0  0  0
    4.6106   -5.3114    0.0000 C   0  0  0  0  0  0  0  0  0  0  0  0
    2.3053   -9.3133    0.0000 C   0  0  0  0  0  0  0  0  0  0  0  0
   12.6698   -5.9753    0.0000 O   0  0  0  0  0  0  0  0  0  0  0  0
   11.5264   -3.9835    0.0000 C   0  0  0  0  0  0  0  0  0  0  0  0
    4.6106   -3.9835    0.0000 O   0  0  0  0  0  0  0  0  0  0  0  0
    3.4487   -5.9753    0.0000 C   0  0  0  0  0  0  0  0  0  0  0  0
    1.1434   -9.9773    0.0000 C   0  0  0  0  0  0  0  0  0  0  0  0
   12.6698   -3.3196    0.0000 C   0  0  0  0  0  0  0  0  0  0  0  0
    2.3053   -5.3114    0.0000 C   0  0  0  0  0  0  0  0  0  0  0  0
    0.0000   -9.3133    0.0000 C   0  0  0  0  0  0  0  0  0  0  0  0
   13.8317   -3.9835    0.0000 C   0  0  0  0  0  0  0  0  0  0  0  0
    2.3053   -3.9835    0.0000 C   0  0  0  0  0  0  0  0  0  0  0  0
   14.9936   -3.3196    0.0000 C   0  0  0  0  0  0  0  0  0  0  0  0
    1.1434   -3.3196    0.0000 C   0  0  0  0  0  0  0  0  0  0  0  0
   16.1370   -3.9835    0.0000 C   0  0  0  0  0  0  0  0  0  0  0  0
    1.1434   -1.9918    0.0000 C   0  0  0  0  0  0  0  0  0  0  0  0
   17.2804   -3.3196    0.0000 C   0  0  0  0  0  0  0  0  0  0  0  0
    0.0000   -1.3278    0.0000 C   0  0  0  0  0  0  0  0  0  0  0  0
   18.4423   -3.9835    0.0000 C   0  0  0  0  0  0  0  0  0  0  0  0
    0.0000   -0.0000    0.0000 C   0  0  0  0  0  0  0  0  0  0  0  0
  1  2  2  0  0  0  0 
  2  3  1  0  0  0  0 
  2  4  1  0  0  0  0 
  3  5  1  0  0  0  0 
  4  6  1  0  0  0  0 
  5  7  1  0  0  0  0 
  5  8  1  0  0  0  0 
  6  9  1  0  0  0  0 
  7 10  1  0  0  0  0 
  8 11  1  0  0  0  0 
  9 12  1  0  0  0  0 
 10 13  1  0  0  0  0 
 11 14  1  0  0  0  0 
 12 15  1  0  0  0  0 
 13 16  2  0  0  0  0 
 13 17  1  0  0  0  0 
 14 18  2  0  0  0  0 
 14 19  1  0  0  0  0 
 15 20  1  0  0  0  0 
 17 21  1  0  0  0  0 
 19 22  1  0  0  0  0 
 20 23  1  0  0  0  0 
 21 24  1  0  0  0  0 
 22 25  1  0  0  0  0 
 24 26  1  0  0  0  0 
 25 27  1  0  0  0  0 
 26 28  1  0  0  0  0 
 27 29  1  0  0  0  0 
 28 30  1  0  0  0  0 
 29 31  1  0  0  0  0 
 30 32  1  0  0  0  0 
 31 33  1  0  0  0  0 
M  END
> <Name>
TRIOCTONOIN

> <Source>
DSSTox2DMolFile

> <Tox>
233

> <CAS>
538-23-8

$$$$

  CDK

 14 15  0  0  0  0  0  0  0  0999 V2000
    0.0000    0.0000    0.0000 N   0  0  0  0  0  0  0  0  0  0  0  0
    1.0000    0.9600   -0.0200 C   0  0  0  0  0  0  0  0  0  0  0  0
    0.3000   -1.2400    0.0000 C   0  0  0  0  0  0  0  0  0  0  0  0
    0.7400    2.2400    0.5000 C   0  0  0  0  0  0  0  0  0  0  0  0
    2.2600    0.6400   -0.5200 C   0  0  0  0  0  0  0  0  0  0  0  0
   -0.7800   -2.2400    0.0200 C   0  0  0  0  0  0  0  0  0  0  0  0
    1.7600    3.2200    0.4800 C   0  0  0  0  0  0  0  0  0  0  0  0
    3.2800    1.6200   -0.5200 C   0  0  0  0  0  0  0  0  0  0  0  0
   -2.1400   -1.8400    0.0000 C   0  0  0  0  0  0  0  0  0  0  0  0
   -0.4800   -3.6200    0.0200 C   0  0  0  0  0  0  0  0  0  0  0  0
    3.0200    2.9000   -0.0200 C   0  0  0  0  0  0  0  0  0  0  0  0
   -3.1600   -2.8000    0.0200 C   0  0  0  0  0  0  0  0  0  0  0  0
   -1.5000   -4.5800    0.0200 C   0  0  0  0  0  0  0  0  0  0  0  0
   -2.8400   -4.1600    0.0200 C   0  0  0  0  0  0  0  0  0  0  0  0
  1  2  1  0  0  0  0 
  1  3  2  0  0  0  0 
  2  4  2  0  0  0  0 
  2  5  1  0  0  0  0 
  3  6  1  0  0  0  0 
  4  7  1  0  0  0  0 
  5  8  2  0  0  0  0 
  6  9  2  0  0  0  0 
  6 10  1  0  0  0  0 
  7 11  2  0  0  0  0 
 11  8  1  0  0  0  0 
  9 12  1  0  0  0  0 
 13 10  2  0  0  0  0 
 12 14  2  0  0  0  0 
 14 13  1  0  0  0  0 
M  END
> <Name>
BENZALANILINE

> <Source>
NIH3DMolFile

> <Tox>
310

> <CAS>
538-51-2

$$$$

  CDK

 11 11  0  0  0  0  0  0  0  0999 V2000
    4.1752    0.4840    0.0000 Cl  0  0  0  0  0  0  0  0  0  0  0  0
    2.4898    0.1362   -0.0001 C   0  0  0  0  0  0  0  0  0  0  0  0
    1.5625    1.1782    0.0006 C   0  0  0  0  0  0  0  0  0  0  0  0
    2.0510   -1.1878   -0.0006 C   0  0  0  0  0  0  0  0  0  0  0  0
    0.1964    0.8962    0.0009 C   0  0  0  0  0  0  0  0  0  0  0  0
    0.6849   -1.4699   -0.0005 C   0  0  0  0  0  0  0  0  0  0  0  0
   -0.2423   -0.4278    0.0002 C   0  0  0  0  0  0  0  0  0  0  0  0
   -1.6087   -0.7099    0.0002 N   0  0  0  0  0  0  0  0  0  0  0  0
   -2.6789    0.1947    0.0007 C   0  0  0  0  0  0  0  0  0  0  0  0
   -2.6197    1.4200   -0.0019 O   0  0  0  0  0  0  0  0  0  0  0  0
   -4.0101   -0.5141    0.0004 C   0  0  0  0  0  0  0  0  0  0  0  0
  1  2  1  0  0  0  0 
  3  2  2  0  0  0  0 
  4  2  1  0  0  0  0 
  5  3  1  0  0  0  0 
  6  4  2  0  0  0  0 
  7  5  2  0  0  0  0 
  7  6  1  0  0  0  0 
  8  7  1  0  0  0  0 
  8  9  1  0  0  0  0 
 10  9  2  0  0  0  0 
  9 11  1  0  0  0  0 
M  END
> <Name>
P-CHLOROACETANILIDE

> <Source>
Chemidplus3DMolFile

> <Tox>
333

> <CAS>
539-03-7

$$$$

  CDK

 11 11  0  0  0  0  0  0  0  0999 V2000
    2.7531   -0.4521    0.0000 O   0  0  0  0  0  0  0  0  0  0  0  0
    2.6417    0.3654    0.0000 C   0  0  0  0  0  0  0  0  0  0  0  0
    2.0102   -0.8107    0.0000 C   0  0  0  0  0  0  0  0  0  0  0  0
    1.8298    0.5119    0.0000 C   0  0  0  0  0  0  0  0  0  0  0  0
    1.4395   -0.2149    0.0000 C   0  0  0  0  0  0  0  0  0  0  0  0
    0.6221   -0.3264    0.0000 C   0  0  0  0  0  0  0  0  0  0  0  0
   -0.1954   -0.4378    0.0000 C   0  0  0  0  0  0  0  0  0  0  0  0
   -1.0128   -0.5493    0.0000 C   0  0  0  0  0  0  0  0  0  0  0  0
   -1.5181    0.1029    0.0000 C   0  0  0  0  0  0  0  0  0  0  0  0
   -1.2059    0.8665    0.0000 C   0  0  0  0  0  0  0  0  0  0  0  0
   -2.3355   -0.0086    0.0000 C   0  0  0  0  0  0  0  0  0  0  0  0
  1  2  1  0  0  0  0 
  1  3  1  0  0  0  0 
  2  4  2  0  0  0  0 
  3  5  2  0  0  0  0 
  4  5  1  0  0  0  0 
  5  6  1  0  0  0  0 
  6  7  1  0  0  0  0 
  7  8  1  0  0  0  0 
  8  9  2  0  0  0  0 
  9 10  1  0  0  0  0 
  9 11  1  0  0  0  0 
M  END
> <Name>
FURAN, 3-(4-METHYL-3-PENTENYL)-

> <Source>
Smiles

> <Tox>
185.5

> <CAS>
539-52-6

$$$$

  CDK

  4  3  0  0  0  0  0  0  0  0999 V2000
    2.0039    1.0884    1.9845 Br  0  0  0  0  0  0  0  0  0  0  0  0
    2.0850    0.2054    0.3557 C   0  0  0  0  0  0  0  0  0  0  0  0
    1.0133   -0.1780   -0.3398 C   0  0  0  0  0  0  0  0  0  0  0  0
    1.0939   -1.0610   -1.9688 Br  0  0  0  0  0  0  0  0  0  0  0  0
  1  2  1  0  0  0  0 
  2  3  2  0  0  0  0 
  4  3  1  0  0  0  0 
M  END
> <Name>
1,2-Ethylene Dibromide

> <Source>
Chemidplus3DMolFile

> <Tox>
111

> <CAS>
540-49-8

$$$$

  CDK

  4  3  0  0  0  0  0  0  0  0999 V2000
    0.0000    1.3830    2.0903 S   0  0  0  0  0  0  0  0  0  0  0  0
    1.4759    2.2548    1.4866 C   0  0  0  0  0  0  0  0  0  0  0  0
    2.8252    1.6644    1.8263 C   0  0  0  0  0  0  0  0  0  0  0  0
    3.1980    0.0000    1.1981 S   0  0  0  0  0  0  0  0  0  0  0  0
  1  2  1  0  0  0  0 
  2  3  1  0  0  0  0 
  3  4  1  0  0  0  0 
M  END
> <Name>
1,2-ETHANEDITHIOL

> <Source>
NIST3DMolFile

> <Tox>
146

> <CAS>
540-63-6

$$$$

  CDK

  8  7  0  0  0  0  0  0  0  0999 V2000
    1.1522   -0.0000    0.0000 O   0  0  0  0  0  0  0  0  0  0  0  0
    1.1522   -1.3319    0.0000 C   0  0  0  0  0  0  0  0  0  0  0  0
    2.3044   -1.9956    0.0000 O   0  0  0  0  0  0  0  0  0  0  0  0
    0.0000   -1.9956    0.0000 C   0  0  0  0  0  0  0  0  0  0  0  0
    3.4566   -1.3319    0.0000 C   0  0  0  0  0  0  0  0  0  0  0  0
    2.7929   -0.1797    0.0000 C   0  0  0  0  0  0  0  0  0  0  0  0
    4.6088   -0.6683    0.0000 C   0  0  0  0  0  0  0  0  0  0  0  0
    4.1203   -2.4842    0.0000 C   0  0  0  0  0  0  0  0  0  0  0  0
  1  2  2  0  0  0  0 
  2  3  1  0  0  0  0 
  2  4  1  0  0  0  0 
  3  5  1  0  0  0  0 
  5  6  1  0  0  0  0 
  5  7  1  0  0  0  0 
  5  8  1  0  0  0  0 
M  END
> <Name>
T-BUTYL ACETATE

> <Source>
DSSTox2DMolFile

> <Tox>
97

> <CAS>
540-88-5

$$$$

  CDK

  7  6  0  0  0  0  0  0  0  0999 V2000
   -0.0277   -0.8592    0.1091 C   0  0  0  0  0  0  0  0  0  0  0  0
   -1.2187    0.0046   -0.3107 C   0  0  0  0  0  0  0  0  0  0  0  0
    1.2469   -0.0729   -0.0583 C   0  0  0  0  0  0  0  0  0  0  0  0
   -2.5128   -0.7938   -0.1407 C   0  0  0  0  0  0  0  0  0  0  0  0
   -1.2738    1.2577    0.5654 C   0  0  0  0  0  0  0  0  0  0  0  0
    2.4316   -0.6356    0.2523 N   0  0  0  0  0  0  0  0  0  0  0  0
    1.2067    1.0663   -0.4726 O   0  0  0  0  0  0  0  0  0  0  0  0
  1  2  1  0  0  0  0 
  1  3  1  0  0  0  0 
  2  4  1  0  0  0  0 
  2  5  1  0  0  0  0 
  3  6  1  0  0  0  0 
  3  7  2  0  0  0  0 
M  END
> <Name>
Butanamide, 3-methyl-

> <Source>
NIH3DMolFile

> <Tox>
226

> <CAS>
541-46-8

$$$$

  CDK

 10  9  0  0  0  0  0  0  0  0999 V2000
    3.4406   -1.3307    0.0000 C   0  0  0  0  0  0  0  0  0  0  0  0
    3.4406   -0.0000    0.0000 C   0  0  0  0  0  0  0  0  0  0  0  0
    2.2891   -1.9996    0.0000 O   0  0  0  0  0  0  0  0  0  0  0  0
    4.5921   -1.9996    0.0000 O   0  0  0  0  0  0  0  0  0  0  0  0
    1.1515   -1.3307    0.0000 C   0  0  0  0  0  0  0  0  0  0  0  0
    5.7436   -1.3307    0.0000 C   0  0  0  0  0  0  0  0  0  0  0  0
    1.1515   -0.0000    0.0000 O   0  0  0  0  0  0  0  0  0  0  0  0
    0.0000   -1.9996    0.0000 C   0  0  0  0  0  0  0  0  0  0  0  0
    5.7436   -0.0000    0.0000 O   0  0  0  0  0  0  0  0  0  0  0  0
    6.8950   -1.9996    0.0000 C   0  0  0  0  0  0  0  0  0  0  0  0
  1  2  1  0  0  0  0 
  1  3  1  0  0  0  0 
  1  4  1  0  0  0  0 
  3  5  1  0  0  0  0 
  4  6  1  0  0  0  0 
  5  7  2  0  0  0  0 
  5  8  1  0  0  0  0 
  6  9  2  0  0  0  0 
  6 10  1  0  0  0  0 
M  END
> <Name>
1,1-Ethanediol, diacetate

> <Source>
DSSTox2DMolFile

> <Tox>
169

> <CAS>
542-10-9

$$$$

  CDK

 18 18  0  0  0  0  0  0  0  0999 V2000
    2.4253    1.3526    0.0000 C   0  0  0  0  0  0  0  0  0  0  0  0
    1.2127    2.0522    0.0000 C   0  0  0  0  0  0  0  0  0  0  0  0
    2.8917    0.0000    0.0000 C   0  0  0  0  0  0  0  0  0  0  0  0
    1.2127    3.4514    0.0000 C   0  0  0  0  0  0  0  0  0  0  0  0
    4.4309    0.0000    0.0000 C   0  0  0  0  0  0  0  0  0  0  0  0
    0.0000    4.1510    0.0000 C   0  0  0  0  0  0  0  0  0  0  0  0
    4.8506    1.3526    0.0000 C   0  0  0  0  0  0  0  0  0  0  0  0
    0.0000    5.5503    0.0000 C   0  0  0  0  0  0  0  0  0  0  0  0
    6.0633    2.0522    0.0000 C   0  0  0  0  0  0  0  0  0  0  0  0
    1.2127    6.2499    0.0000 C   0  0  0  0  0  0  0  0  0  0  0  0
    6.0633    3.4514    0.0000 C   0  0  0  0  0  0  0  0  0  0  0  0
    2.4253    5.5503    0.0000 C   0  0  0  0  0  0  0  0  0  0  0  0
    7.2760    4.1510    0.0000 C   0  0  0  0  0  0  0  0  0  0  0  0
    3.6380    6.2499    0.0000 C   0  0  0  0  0  0  0  0  0  0  0  0
    7.2760    5.5503    0.0000 C   0  0  0  0  0  0  0  0  0  0  0  0
    4.8506    5.5503    0.0000 C   0  0  0  0  0  0  0  0  0  0  0  0
    3.6380    7.6491    0.0000 O   0  0  0  0  0  0  0  0  0  0  0  0
    6.0633    6.2499    0.0000 C   0  0  0  0  0  0  0  0  0  0  0  0
  1  2  1  0  0  0  0 
  1  3  1  0  0  0  0 
  2  4  1  0  0  0  0 
  5  3  2  0  0  0  0 
  4  6  1  0  0  0  0 
  7  5  1  0  0  0  0 
  6  8  1  0  0  0  0 
  9  7  1  0  0  0  0 
  8 10  1  0  0  0  0 
 11  9  1  0  0  0  0 
 12 10  1  0  0  0  0 
 11 13  1  0  0  0  0 
 12 14  1  0  0  0  0 
 15 13  1  0  0  0  0 
 14 16  1  0  0  0  0 
 14 17  2  0  0  0  0 
 18 15  1  0  0  0  0 
 16 18  1  0  0  0  0 
M  END
> <Name>
9-Cycloheptadecen-1-one, (Z)-

> <Source>
IndexNet2DMolFile

> <Tox>
343

> <CAS>
542-46-1

$$$$

  CDK

  7  6  0  0  0  0  0  0  0  0999 V2000
    0.0000    1.0183    0.0000 C   0  0  0  0  0  0  0  0  0  0  0  0
    0.9165    1.4766    0.0000 C   0  0  0  0  0  0  0  0  0  0  0  0
    1.7311    1.0183    0.0000 C   0  0  0  0  0  0  0  0  0  0  0  0
    0.9165    2.4949    0.0000 C   0  0  0  0  0  0  0  0  0  0  0  0
    2.5967    1.4766    0.0000 O   0  0  0  0  0  0  0  0  0  0  0  0
    3.5132    1.0183    0.0000 C   0  0  0  0  0  0  0  0  0  0  0  0
    3.5132    0.0000    0.0000 O   0  0  0  0  0  0  0  0  0  0  0  0
  1  2  1  0  0  0  0 
  2  3  1  0  0  0  0 
  2  4  1  0  0  0  0 
  3  5  1  0  0  0  0 
  5  6  1  0  0  0  0 
  6  7  2  0  0  0  0 
M  END
> <Name>
ISOBUTYL FORMATE

> <Source>
NIST2DMolFile

> <Tox>
98.2

> <CAS>
542-55-2

$$$$

  CDK

  7  6  0  0  0  0  0  0  0  0999 V2000
    0.9039    1.0043    0.0000 C   0  0  0  0  0  0  0  0  0  0  0  0
    1.7576    1.5065    0.0000 O   0  0  0  0  0  0  0  0  0  0  0  0
    0.9039    0.0000    0.0000 C   0  0  0  0  0  0  0  0  0  0  0  0
    0.0000    1.5065    0.0000 O   0  0  0  0  0  0  0  0  0  0  0  0
    2.6112    1.0043    0.0000 C   0  0  0  0  0  0  0  0  0  0  0  0
    3.4649    1.5065    0.0000 C   0  0  0  0  0  0  0  0  0  0  0  0
    4.3186    1.0043    0.0000 O   0  0  0  0  0  0  0  0  0  0  0  0
  1  2  1  0  0  0  0 
  1  3  1  0  0  0  0 
  1  4  2  0  0  0  0 
  2  5  1  0  0  0  0 
  5  6  1  0  0  0  0 
  6  7  1  0  0  0  0 
M  END
> <Name>
1,2-Ethanediol, monoacetate

> <Source>
NIST2DMolFile

> <Tox>
188

> <CAS>
542-59-6

$$$$

  CDK

  5  4  0  0  0  0  0  0  0  0999 V2000
    0.0000    0.0000    0.0000 C   0  0  0  0  0  0  0  0  0  0  0  0
    0.8526    0.5015    0.0000 C   0  0  0  0  0  0  0  0  0  0  0  0
    1.7553    0.0000    0.0000 S   0  0  0  0  0  0  0  0  0  0  0  0
    2.6078    0.5015    0.0000 C   0  0  0  0  0  0  0  0  0  0  0  0
    3.4604    1.0030    0.0000 N   0  0  0  0  0  0  0  0  0  0  0  0
  1  2  1  0  0  0  0 
  2  3  1  0  0  0  0 
  3  4  1  0  0  0  0 
  4  5  3  0  0  0  0 
M  END
> <Name>
ETHYL THIOCYANATE

> <Source>
NIST2DMolFile

> <Tox>
146

> <CAS>
542-90-5

$$$$

  CDK

  8  7  0  0  0  0  0  0  0  0999 V2000
    0.5800   -0.3776   -0.2416 O   0  0  0  0  0  0  0  0  0  0  0  0
   -0.4744    0.5440    0.0026 C   0  0  0  0  0  0  0  0  0  0  0  0
    1.8467    0.0750    0.0124 C   0  0  0  0  0  0  0  0  0  0  0  0
   -1.8214   -0.1054   -0.3265 C   0  0  0  0  0  0  0  0  0  0  0  0
    2.1216    1.1963    0.4266 O   0  0  0  0  0  0  0  0  0  0  0  0
    2.7757   -0.8985   -0.2595 N   0  0  0  0  0  0  0  0  0  0  0  0
   -2.0734   -1.3380    0.5444 C   0  0  0  0  0  0  0  0  0  0  0  0
   -2.9548    0.9041   -0.1583 C   0  0  0  0  0  0  0  0  0  0  0  0
  1  2  1  0  0  0  0 
  1  3  1  0  0  0  0 
  4  2  1  0  0  0  0 
  5  3  2  0  0  0  0 
  6  3  1  0  0  0  0 
  4  7  1  0  0  0  0 
  4  8  1  0  0  0  0 
M  END
> <Name>
Carbamic acid, 2-methylpropyl ester

> <Source>
Chemidplus3DMolFile

> <Tox>
207

> <CAS>
543-28-2

$$$$

  CDK

  8  7  0  0  0  0  0  0  0  0999 V2000
    1.7121    1.5107    0.0000 C   0  0  0  0  0  0  0  0  0  0  0  0
    2.6185    1.0071    0.0000 O   0  0  0  0  0  0  0  0  0  0  0  0
    0.8561    1.0071    0.0000 C   0  0  0  0  0  0  0  0  0  0  0  0
    3.4746    1.5611    0.0000 N   0  0  0  0  0  0  0  0  0  0  0  0
    0.8561    0.0000    0.0000 C   0  0  0  0  0  0  0  0  0  0  0  0
    0.0000    1.5107    0.0000 C   0  0  0  0  0  0  0  0  0  0  0  0
    3.4746    2.5178    0.0000 O   0  0  0  0  0  0  0  0  0  0  0  0
    4.3307    1.0575    0.0000 O   0  0  0  0  0  0  0  0  0  0  0  0
  1  2  1  0  0  0  0 
  1  3  1  0  0  0  0 
  2  4  1  0  0  0  0 
  3  5  1  0  0  0  0 
  3  6  1  0  0  0  0 
  4  7  2  0  0  0  0 
  4  8  2  0  0  0  0 
M  END
> <Name>
ISOBUTYL NITRATE

> <Source>
NIST2DMolFile

> <Tox>
123.4

> <CAS>
543-29-3

$$$$

  CDK

  6  5  0  0  0  0  0  0  0  0999 V2000
    1.4717    3.4589    1.0950 C   0  0  0  0  0  0  0  0  0  0  0  0
    1.0721    2.1172    1.6648 C   0  0  0  0  0  0  0  0  0  0  0  0
    1.8750    0.9545    1.0821 C   0  0  0  0  0  0  0  0  0  0  0  0
    3.0511    0.6563    1.8159 O   0  0  0  0  0  0  0  0  0  0  0  0
    4.1683    1.4485    1.4565 N   0  0  0  0  0  0  0  0  0  0  0  0
    5.0601    1.1266    2.1317 O   0  0  0  0  0  0  0  0  0  0  0  0
  1  2  1  0  0  0  0 
  2  3  1  0  0  0  0 
  3  4  1  0  0  0  0 
  4  5  1  0  0  0  0 
  5  6  2  0  0  0  0 
M  END
> <Name>
N-PROPYLNITRITE

> <Source>
NIST3DMolFile

> <Tox>
48

> <CAS>
543-67-9

$$$$

  CDK

 11 10  0  0  0  0  0  0  0  0999 V2000
    1.7041    1.5036    0.0000 C   0  0  0  0  0  0  0  0  0  0  0  0
    2.6062    1.0024    0.0000 C   0  0  0  0  0  0  0  0  0  0  0  0
    0.8520    1.0024    0.0000 C   0  0  0  0  0  0  0  0  0  0  0  0
    3.4583    1.5036    0.0000 S   0  0  0  0  0  0  0  0  0  0  0  0
    0.8520    0.0000    0.0000 C   0  0  0  0  0  0  0  0  0  0  0  0
    0.0000    1.5036    0.0000 C   0  0  0  0  0  0  0  0  0  0  0  0
    4.3103    1.0024    0.0000 C   0  0  0  0  0  0  0  0  0  0  0  0
    5.2125    1.5036    0.0000 C   0  0  0  0  0  0  0  0  0  0  0  0
    6.0645    1.0024    0.0000 C   0  0  0  0  0  0  0  0  0  0  0  0
    6.0645    0.0000    0.0000 C   0  0  0  0  0  0  0  0  0  0  0  0
    6.9166    1.5036    0.0000 C   0  0  0  0  0  0  0  0  0  0  0  0
  1  2  1  0  0  0  0 
  1  3  1  0  0  0  0 
  2  4  1  0  0  0  0 
  3  5  1  0  0  0  0 
  3  6  1  0  0  0  0 
  4  7  1  0  0  0  0 
  7  8  1  0  0  0  0 
  8  9  1  0  0  0  0 
  9 10  1  0  0  0  0 
  9 11  1  0  0  0  0 
M  END
> <Name>
DIISOAMYL SULFIDE

> <Source>
NIST2DMolFile

> <Tox>
211

> <CAS>
544-02-5

$$$$

  CDK

  7  6  0  0  0  0  0  0  0  0999 V2000
    4.8533    0.0000    0.0000 C   0  0  0  0  0  0  0  0  0  0  0  0
    6.2533    0.0000    0.0000 O   0  0  0  0  0  0  0  0  0  0  0  0
    4.1533    1.2133    0.0000 C   0  0  0  0  0  0  0  0  0  0  0  0
    2.7533    1.2133    0.0000 C   0  0  0  0  0  0  0  0  0  0  0  0
    2.0533    2.4267    0.0000 C   0  0  0  0  0  0  0  0  0  0  0  0
    0.6533    2.4267    0.0000 C   0  0  0  0  0  0  0  0  0  0  0  0
    0.0000    3.5933    0.0000 C   0  0  0  0  0  0  0  0  0  0  0  0
  1  2  1  0  0  0  0 
  1  3  1  0  0  0  0 
  3  4  1  0  0  0  0 
  4  5  2  0  0  0  0 
  5  6  1  0  0  0  0 
  6  7  1  0  0  0  0 
M  END
> <Name>
3-HEXENE-1-OL

> <Source>
IndexNet2DMolFile

> <Tox>
156.5

> <CAS>
544-12-7

$$$$

  CDK

  7  7  0  0  0  0  0  0  0  0999 V2000
    0.9402    1.2938   -0.0002 C   0  0  0  0  0  0  0  0  0  0  0  0
   -0.3657    1.5678   -0.0006 C   0  0  0  0  0  0  0  0  0  0  0  0
    1.6675    0.0050    0.0009 C   0  0  0  0  0  0  0  0  0  0  0  0
   -1.4915    0.6650    0.0004 C   0  0  0  0  0  0  0  0  0  0  0  0
    0.9482   -1.2884   -0.0004 C   0  0  0  0  0  0  0  0  0  0  0  0
   -1.4874   -0.6739    0.0005 C   0  0  0  0  0  0  0  0  0  0  0  0
   -0.3561   -1.5698   -0.0006 C   0  0  0  0  0  0  0  0  0  0  0  0
  1  2  2  0  0  0  0 
  1  3  1  0  0  0  0 
  2  4  1  0  0  0  0 
  5  3  1  0  0  0  0 
  4  6  2  0  0  0  0 
  7  5  2  0  0  0  0 
  6  7  1  0  0  0  0 
M  END
> <Name>
CYCLOHEPTATRIENE

> <Source>
DougDB3DMolFile

> <Tox>
117

> <CAS>
544-25-2

$$$$

  CDK

 11 12  0  0  0  0  0  0  0  0999 V2000
    1.3755   -3.3947    0.0000 C   0  0  0  0  0  0  0  0  0  0  0  0
    2.7069   -3.3947    0.0000 C   0  0  0  0  0  0  0  0  0  0  0  0
    0.0880   -3.0811    0.0000 C   0  0  0  0  0  0  0  0  0  0  0  0
    0.9738   -2.0852    0.0000 C   0  0  0  0  0  0  0  0  0  0  0  0
    1.1994   -4.7041    0.0000 C   0  0  0  0  0  0  0  0  0  0  0  0
    3.1306   -2.1292    0.0000 C   0  0  0  0  0  0  0  0  0  0  0  0
    2.0632   -1.3315    0.0000 C   0  0  0  0  0  0  0  0  0  0  0  0
    2.2613   -5.5019    0.0000 C   0  0  0  0  0  0  0  0  0  0  0  0
    0.0000   -5.2158    0.0000 C   0  0  0  0  0  0  0  0  0  0  0  0
    4.3905   -1.7331    0.0000 O   0  0  0  0  0  0  0  0  0  0  0  0
    2.0852   -0.0000    0.0000 C   0  0  0  0  0  0  0  0  0  0  0  0
  1  2  1  0  0  0  0 
  1  3  1  6  0  0  0 
  1  4  1  0  0  0  0 
  1  5  1  1  0  0  0 
  2  6  1  0  0  0  0 
  4  3  1  6  0  0  0 
  4  7  1  0  0  0  0 
  5  8  1  0  0  0  0 
  5  9  1  0  0  0  0 
  6  7  1  0  0  0  0 
  6 10  2  0  0  0  0 
  7 11  1  1  0  0  0 
M  END
> <Name>
THUJONE

> <Source>
DSSTox2DMolFile

> <Tox>
203

> <CAS>
546-80-5

$$$$

  CDK

 12 13  0  0  0  0  0  0  0  0999 V2000
    2.3069   -1.6154    0.0000 C   0  0  0  0  0  0  0  0  0  0  0  0
    2.3069   -3.0267    0.0000 C   0  0  0  0  0  0  0  0  0  0  0  0
    3.5539   -1.2470    0.0000 C   0  0  0  0  0  0  0  0  0  0  0  0
    1.1223   -0.9919    0.0000 C   0  0  0  0  0  0  0  0  0  0  0  0
    3.5539   -3.3952    0.0000 C   0  0  0  0  0  0  0  0  0  0  0  0
    1.1223   -3.6502    0.0000 C   0  0  0  0  0  0  0  0  0  0  0  0
    4.3417   -2.3182    0.0000 N   0  0  0  0  0  0  0  0  0  0  0  0
    3.9733   -0.0000    0.0000 O   0  0  0  0  0  0  0  0  0  0  0  0
    0.0000   -1.6154    0.0000 C   0  0  0  0  0  0  0  0  0  0  0  0
    3.9733   -4.6421    0.0000 O   0  0  0  0  0  0  0  0  0  0  0  0
    0.0000   -3.0267    0.0000 C   0  0  0  0  0  0  0  0  0  0  0  0
    5.6681   -2.3182    0.0000 C   0  0  0  0  0  0  0  0  0  0  0  0
  1  2  2  0  0  0  0 
  1  3  1  0  0  0  0 
  1  4  1  0  0  0  0 
  2  5  1  0  0  0  0 
  2  6  1  0  0  0  0 
  7  3  1  0  0  0  0 
  3  8  2  0  0  0  0 
  4  9  2  0  0  0  0 
  7  5  1  0  0  0  0 
  5 10  2  0  0  0  0 
  6 11  2  0  0  0  0 
  7 12  1  0  0  0  0 
 11  9  1  0  0  0  0 
M  END
> <Name>
PHTHALIMIDE,N-METHYL

> <Source>
DSSTox2DMolFile

> <Tox>
286

> <CAS>
550-44-7

$$$$

  CDK

 11 11  0  0  0  0  0  0  0  0999 V2000
    2.4939    0.8978    0.0000 C   0  0  0  0  0  0  0  0  0  0  0  0
    1.4964    0.8978    0.0000 C   0  0  0  0  0  0  0  0  0  0  0  0
    2.9927    1.7458    0.0000 C   0  0  0  0  0  0  0  0  0  0  0  0
    2.9927    0.0000    0.0000 C   0  0  0  0  0  0  0  0  0  0  0  0
    0.9976    1.7458    0.0000 C   0  0  0  0  0  0  0  0  0  0  0  0
    0.9976    0.0000    0.0000 Cl  0  0  0  0  0  0  0  0  0  0  0  0
    2.4939    2.6436    0.0000 C   0  0  0  0  0  0  0  0  0  0  0  0
    3.9404    1.7458    0.0000 Cl  0  0  0  0  0  0  0  0  0  0  0  0
    1.4964    2.6436    0.0000 C   0  0  0  0  0  0  0  0  0  0  0  0
    0.0000    1.7458    0.0000 O   0  0  0  0  0  0  0  0  0  0  0  0
    0.9976    3.4915    0.0000 Cl  0  0  0  0  0  0  0  0  0  0  0  0
  2  1  2  0  0  0  0 
  1  3  1  0  0  0  0 
  1  4  1  0  0  0  0 
  5  2  1  0  0  0  0 
  2  6  1  0  0  0  0 
  3  7  2  0  0  0  0 
  3  8  1  0  0  0  0 
  9  5  2  0  0  0  0 
  5 10  1  0  0  0  0 
  7  9  1  0  0  0  0 
  9 11  1  0  0  0  0 
M  END
> <Name>
2,4,6-TRICHLORO-3-METHYLPHENOL

> <Source>
NIST2DMolFile

> <Tox>
265

> <CAS>
551-76-8

$$$$

  CDK

  7  6  0  0  0  0  0  0  0  0999 V2000
    1.2127    2.0988    0.0000 P   0  0  0  0  0  0  0  0  0  0  0  0
    2.4253    1.3992    0.0000 C   0  0  0  0  0  0  0  0  0  0  0  0
    0.0000    1.3992    0.0000 C   0  0  0  0  0  0  0  0  0  0  0  0
    1.2127    3.4981    0.0000 C   0  0  0  0  0  0  0  0  0  0  0  0
    3.6380    2.0988    0.0000 C   0  0  0  0  0  0  0  0  0  0  0  0
    0.0000    0.0000    0.0000 C   0  0  0  0  0  0  0  0  0  0  0  0
    0.0000    4.1977    0.0000 C   0  0  0  0  0  0  0  0  0  0  0  0
  1  2  1  0  0  0  0 
  1  3  1  0  0  0  0 
  1  4  1  0  0  0  0 
  2  5  1  0  0  0  0 
  3  6  1  0  0  0  0 
  4  7  1  0  0  0  0 
M  END
> <Name>
Phosphine, triethyl-

> <Source>
IndexNet2DMolFile

> <Tox>
129

> <CAS>
554-70-1

$$$$

  CDK

 11 11  0  0  0  0  0  0  0  0999 V2000
    0.0497    0.8454    0.0000 O   0  0  0  0  0  0  0  0  0  0  0  0
    0.4973    1.7405    0.0000 N   0  0  0  0  0  0  0  0  0  0  0  0
    0.0000    2.5859    0.0000 O   0  0  0  0  0  0  0  0  0  0  0  0
    1.5416    1.7405    0.0000 C   0  0  0  0  0  0  0  0  0  0  0  0
    2.0389    0.8454    0.0000 C   0  0  0  0  0  0  0  0  0  0  0  0
    2.0389    2.5859    0.0000 C   0  0  0  0  0  0  0  0  0  0  0  0
    3.0335    0.8454    0.0000 C   0  0  0  0  0  0  0  0  0  0  0  0
    3.0335    2.5859    0.0000 C   0  0  0  0  0  0  0  0  0  0  0  0
    3.5307    0.0000    0.0000 O   0  0  0  0  0  0  0  0  0  0  0  0
    3.5307    1.7405    0.0000 C   0  0  0  0  0  0  0  0  0  0  0  0
    4.5253    0.0000    0.0000 C   0  0  0  0  0  0  0  0  0  0  0  0
  1  2  2  0  0  0  0 
  2  3  2  0  0  0  0 
  2  4  1  0  0  0  0 
  4  5  2  0  0  0  0 
  6  4  1  0  0  0  0 
  5  7  1  0  0  0  0 
  8  6  2  0  0  0  0 
  7  9  1  0  0  0  0 
  7 10  2  0  0  0  0 
 10  8  1  0  0  0  0 
  9 11  1  0  0  0  0 
M  END
> <Name>
M-NITROANISOLE

> <Source>
NIST2DMolFile

> <Tox>
258

> <CAS>
555-03-3

$$$$

  CDK

  4  3  0  0  0  0  0  0  0  0999 V2000
    3.3274   -0.0000    0.0000 C   0  0  0  0  0  0  0  0  0  0  0  0
    2.6586   -1.1513    0.0000 N   0  0  0  0  0  0  0  0  0  0  0  0
    1.3376   -1.1513    0.0000 C   0  0  0  0  0  0  0  0  0  0  0  0
    0.0000   -1.1513    0.0000 S   0  0  0  0  0  0  0  0  0  0  0  0
  1  2  1  0  0  0  0 
  3  2  2  0  0  0  0 
  3  4  2  0  0  0  0 
M  END
> <Name>
METHYL ISOTHIOCYANATE

> <Source>
DSSTox2DMolFile

> <Tox>
119

> <CAS>
556-61-6

$$$$

  CDK

  4  3  0  0  0  0  0  0  0  0999 V2000
    0.6996    1.2127    0.0000 As  0  0  0  0  0  0  0  0  0  0  0  0
    0.0000    0.0000    0.0000 C   0  0  0  0  0  0  0  0  0  0  0  0
    0.0000    2.4253    0.0000 C   0  0  0  0  0  0  0  0  0  0  0  0
    2.0988    1.2127    0.0000 Cl  0  0  0  0  0  0  0  0  0  0  0  0
  1  2  1  0  0  0  0 
  1  3  1  0  0  0  0 
  1  4  1  0  0  0  0 
M  END
> <Name>
Dimethylchloroarsine

> <Source>
IndexNet2DMolFile

> <Tox>
109

> <CAS>
557-89-1

$$$$

  CDK

  8  7  0  0  0  0  0  0  0  0999 V2000
    3.7935    2.7640    2.8049 C   0  0  0  0  0  0  0  0  0  0  0  0
    2.7853    1.9737    1.9505 C   0  0  0  0  0  0  0  0  0  0  0  0
    5.0066    3.2170    2.0086 C   0  0  0  0  0  0  0  0  0  0  0  0
    1.5674    1.6061    2.8191 C   0  0  0  0  0  0  0  0  0  0  0  0
    2.3225    2.8094    0.7569 C   0  0  0  0  0  0  0  0  0  0  0  0
    3.4508    0.6905    1.4543 C   0  0  0  0  0  0  0  0  0  0  0  0
    5.9958    3.9665    2.8678 C   0  0  0  0  0  0  0  0  0  0  0  0
    0.8529    2.8272    3.3565 C   0  0  0  0  0  0  0  0  0  0  0  0
  1  2  1  0  0  0  0 
  1  3  1  0  0  0  0 
  2  4  1  0  0  0  0 
  2  5  1  0  0  0  0 
  2  6  1  0  0  0  0 
  3  7  1  0  0  0  0 
  4  8  1  0  0  0  0 
M  END
> <Name>
3,3-DIMETHYL HEXANE

> <Source>
NIST3DMolFile

> <Tox>
111.9

> <CAS>
563-16-6

$$$$

  CDK

  5  4  0  0  0  0  0  0  0  0999 V2000
    2.0100    2.5577    1.6595 C   0  0  0  0  0  0  0  0  0  0  0  0
    0.8532    2.0816    2.5131 C   0  0  0  0  0  0  0  0  0  0  0  0
    3.1829    1.6335    1.7639 C   0  0  0  0  0  0  0  0  0  0  0  0
    4.0821    1.8396    2.9294 C   0  0  0  0  0  0  0  0  0  0  0  0
    3.4055    0.6818    0.8577 C   0  0  0  0  0  0  0  0  0  0  0  0
  1  2  1  0  0  0  0 
  1  3  1  0  0  0  0 
  3  4  1  0  0  0  0 
  3  5  2  0  0  0  0 
M  END
> <Name>
2-METHYL-1-BUTENE

> <Source>
NIST3DMolFile

> <Tox>
31.2

> <CAS>
563-46-2

$$$$

  CDK

  5  4  0  0  0  0  0  0  0  0999 V2000
    2.3056   -1.3308    0.0000 C   0  0  0  0  0  0  0  0  0  0  0  0
    3.4567   -1.9945    0.0000 C   0  0  0  0  0  0  0  0  0  0  0  0
    2.3056   -0.0000    0.0000 C   0  0  0  0  0  0  0  0  0  0  0  0
    1.1511   -1.9945    0.0000 C   0  0  0  0  0  0  0  0  0  0  0  0
    0.0000   -1.3308    0.0000 Cl  0  0  0  0  0  0  0  0  0  0  0  0
  1  2  1  0  0  0  0 
  1  3  2  0  0  0  0 
  1  4  1  0  0  0  0 
  4  5  1  0  0  0  0 
M  END
> <Name>
3-CHLORO-2-METHYLPROPENE

> <Source>
DSSTox2DMolFile

> <Tox>
71.5

> <CAS>
563-47-3

$$$$

  CDK

  6  5  0  0  0  0  0  0  0  0999 V2000
    1.3307   -0.0000    0.0000 C   0  0  0  0  0  0  0  0  0  0  0  0
    1.9943   -1.1509    0.0000 C   0  0  0  0  0  0  0  0  0  0  0  0
    1.3307   -2.3053    0.0000 C   0  0  0  0  0  0  0  0  0  0  0  0
    3.3250   -1.1509    0.0000 Cl  0  0  0  0  0  0  0  0  0  0  0  0
    1.9943   -3.4563    0.0000 O   0  0  0  0  0  0  0  0  0  0  0  0
    0.0000   -2.3053    0.0000 C   0  0  0  0  0  0  0  0  0  0  0  0
  1  2  1  0  0  0  0 
  2  3  1  0  0  0  0 
  2  4  1  0  0  0  0 
  3  5  1  0  0  0  0 
  3  6  1  0  0  0  0 
M  END
> <Name>
2-BUTANOL, 3-CHLORO-

> <Source>
DSSTox2DMolFile

> <Tox>
139

> <CAS>
563-84-8

$$$$

  CDK

 10 11  0  0  0  0  0  0  0  0999 V2000
    0.2156   -0.7327    0.0000 C   0  0  0  0  0  0  0  0  0  0  0  0
   -0.7651   -0.8482    0.0000 C   0  0  0  0  0  0  0  0  0  0  0  0
    0.4468    0.1434    0.0000 C   0  0  0  0  0  0  0  0  0  0  0  0
    0.9396   -1.0861    0.0000 C   0  0  0  0  0  0  0  0  0  0  0  0
   -0.1971   -0.6101    0.0000 C   0  0  0  0  0  0  0  0  0  0  0  0
   -1.4499   -0.2756    0.0000 C   0  0  0  0  0  0  0  0  0  0  0  0
   -0.3173    0.3353    0.0000 C   0  0  0  0  0  0  0  0  0  0  0  0
    0.5709    1.0353    0.0000 C   0  0  0  0  0  0  0  0  0  0  0  0
    1.2497    0.3619    0.0000 C   0  0  0  0  0  0  0  0  0  0  0  0
   -1.1157    0.4693    0.0000 C   0  0  0  0  0  0  0  0  0  0  0  0
  1  2  1  0  0  0  0 
  1  3  1  0  0  0  0 
  1  4  2  0  0  0  0 
  2  5  1  0  0  0  0 
  2  6  1  0  0  0  0 
  7  3  1  0  0  0  0 
  3  8  1  0  0  0  0 
  3  9  1  0  0  0  0 
  5  7  1  0  0  0  0 
 10  6  1  0  0  0  0 
  7 10  1  0  0  0  0 
M  END
> <Name>
Bicyclo 2.2.1 heptane, 2,2-dimethyl-3-methylene-

> <Source>
Smiles

> <Tox>
158.5

> <CAS>
565-00-4

$$$$

  CDK

  7  6  0  0  0  0  0  0  0  0999 V2000
    2.4092    2.3983    0.0000 C   0  0  0  0  0  0  0  0  0  0  0  0
    1.7065    1.6957    0.0000 C   0  0  0  0  0  0  0  0  0  0  0  0
    2.4092    0.9930    0.0000 C   0  0  0  0  0  0  0  0  0  0  0  0
    0.7529    1.6957    0.0000 C   0  0  0  0  0  0  0  0  0  0  0  0
    3.2775    1.4914    0.0000 O   0  0  0  0  0  0  0  0  0  0  0  0
    2.4124    0.0000    0.0000 O   0  0  0  0  0  0  0  0  0  0  0  0
    0.0000    0.9428    0.0000 C   0  0  0  0  0  0  0  0  0  0  0  0
  1  2  1  0  0  0  0 
  2  3  1  0  0  0  0 
  2  4  2  0  0  0  0 
  3  5  1  0  0  0  0 
  3  6  2  0  0  0  0 
  4  7  1  0  0  0  0 
M  END
> <Name>
2-METHYL-2-BUTENOIC ACID (Z)

> <Source>
NIST2DMolFile

> <Tox>
185

> <CAS>
565-63-9

$$$$

  CDK

  7  6  0  0  0  0  0  0  0  0999 V2000
    2.5864    0.9948    0.0000 C   0  0  0  0  0  0  0  0  0  0  0  0
    1.7409    1.4922    0.0000 C   0  0  0  0  0  0  0  0  0  0  0  0
    2.5864    0.0000    0.0000 C   0  0  0  0  0  0  0  0  0  0  0  0
    3.4818    1.4922    0.0000 C   0  0  0  0  0  0  0  0  0  0  0  0
    0.8953    0.9948    0.0000 C   0  0  0  0  0  0  0  0  0  0  0  0
    1.7409    2.4870    0.0000 O   0  0  0  0  0  0  0  0  0  0  0  0
    0.0000    1.4922    0.0000 C   0  0  0  0  0  0  0  0  0  0  0  0
  1  2  1  0  0  0  0 
  1  3  1  0  0  0  0 
  1  4  1  0  0  0  0 
  2  5  1  0  0  0  0 
  2  6  2  0  0  0  0 
  5  7  1  0  0  0  0 
M  END
> <Name>
2-METHYL-3-PENTANONE

> <Source>
NIST2DMolFile

> <Tox>
113.5

> <CAS>
565-69-5

$$$$

  CDK

  9  9  0  0  0  0  0  0  0  0999 V2000
    3.4525   -1.9814    0.0000 C   0  0  0  0  0  0  0  0  0  0  0  0
    3.4525   -3.3238    0.0000 C   0  0  0  0  0  0  0  0  0  0  0  0
    2.2986   -1.3194    0.0000 C   0  0  0  0  0  0  0  0  0  0  0  0
    4.5972   -1.3194    0.0000 C   0  0  0  0  0  0  0  0  0  0  0  0
    2.2986   -3.9857    0.0000 C   0  0  0  0  0  0  0  0  0  0  0  0
    1.1447   -1.9814    0.0000 C   0  0  0  0  0  0  0  0  0  0  0  0
    2.2986   -0.0000    0.0000 O   0  0  0  0  0  0  0  0  0  0  0  0
    1.1447   -3.3238    0.0000 C   0  0  0  0  0  0  0  0  0  0  0  0
    0.0000   -1.3194    0.0000 C   0  0  0  0  0  0  0  0  0  0  0  0
  1  2  1  0  0  0  0 
  1  3  2  0  0  0  0 
  1  4  1  0  0  0  0 
  2  5  2  0  0  0  0 
  3  6  1  0  0  0  0 
  3  7  1  0  0  0  0 
  5  8  1  0  0  0  0 
  6  8  2  0  0  0  0 
  6  9  1  0  0  0  0 
M  END
> <Name>
2,6-DIMETHYLPHENOL

> <Source>
DSSTox2DMolFile

> <Tox>
201

> <CAS>
576-26-1

$$$$

  CDK

 10 10  0  0  0  0  0  0  0  0999 V2000
    0.0000    1.4684    0.0000 C   0  0  0  0  0  0  0  0  0  0  0  0
    0.8608    1.9747    0.0000 C   0  0  0  0  0  0  0  0  0  0  0  0
    0.0000    0.5063    0.0000 C   0  0  0  0  0  0  0  0  0  0  0  0
    1.7722    1.4684    0.0000 C   0  0  0  0  0  0  0  0  0  0  0  0
    0.8608    2.9874    0.0000 Br  0  0  0  0  0  0  0  0  0  0  0  0
    0.8608    0.0000    0.0000 C   0  0  0  0  0  0  0  0  0  0  0  0
    1.7722    0.5063    0.0000 C   0  0  0  0  0  0  0  0  0  0  0  0
    2.5823    1.9747    0.0000 N   0  0  0  0  0  0  0  0  0  0  0  0
    3.5950    1.9747    0.0000 O   0  0  0  0  0  0  0  0  0  0  0  0
    2.5823    2.9874    0.0000 O   0  0  0  0  0  0  0  0  0  0  0  0
  1  2  2  0  0  0  0 
  3  1  1  0  0  0  0 
  2  4  1  0  0  0  0 
  2  5  1  0  0  0  0 
  6  3  2  0  0  0  0 
  4  7  2  0  0  0  0 
  4  8  1  0  0  0  0 
  7  6  1  0  0  0  0 
  8  9  2  0  0  0  0 
  8 10  2  0  0  0  0 
M  END
> <Name>
O-BROMONITROBENZENE

> <Source>
NIST2DMolFile

> <Tox>
258

> <CAS>
577-19-5

$$$$

  CDK

  9  9  0  0  0  0  0  0  0  0999 V2000
    0.2596    2.2777   -0.1211 N   0  0  0  0  0  0  0  0  0  0  0  0
   -0.3055    0.9660   -0.0226 C   0  0  0  0  0  0  0  0  0  0  0  0
    0.4596   -0.1897   -0.2638 C   0  0  0  0  0  0  0  0  0  0  0  0
   -1.6826    0.8513    0.2248 C   0  0  0  0  0  0  0  0  0  0  0  0
   -0.1784   -1.4316   -0.2767 C   0  0  0  0  0  0  0  0  0  0  0  0
    1.9371   -0.1416   -0.5019 C   0  0  0  0  0  0  0  0  0  0  0  0
   -2.2922   -0.3939    0.2147 C   0  0  0  0  0  0  0  0  0  0  0  0
   -1.5423   -1.5377   -0.0412 C   0  0  0  0  0  0  0  0  0  0  0  0
    2.7094   -0.7088    0.6718 C   0  0  0  0  0  0  0  0  0  0  0  0
  1  2  1  0  0  0  0 
  2  3  1  0  0  0  0 
  2  4  2  0  0  0  0 
  3  5  2  0  0  0  0 
  3  6  1  0  0  0  0 
  7  4  1  0  0  0  0 
  5  8  1  0  0  0  0 
  6  9  1  0  0  0  0 
  8  7  2  0  0  0  0 
M  END
> <Name>
O-ETHYLANILINE

> <Source>
DougDB3DMolFile

> <Tox>
209.65

> <CAS>
578-54-1

$$$$

  CDK

 15 17  0  0  0  0  0  0  0  0999 V2000
    0.0000    0.0000    0.0000 Cl  0  0  0  0  0  0  0  0  0  0  0  0
    0.2400    2.0200    0.7200 As  0  0  0  0  0  0  0  0  0  0  0  0
   -1.1400    3.2800    0.9800 C   0  0  0  0  0  0  0  0  0  0  0  0
    1.9000    2.8000    1.1800 C   0  0  0  0  0  0  0  0  0  0  0  0
   -0.7000    4.5600    1.3800 C   0  0  0  0  0  0  0  0  0  0  0  0
   -2.4800    2.9600    0.7800 C   0  0  0  0  0  0  0  0  0  0  0  0
    1.8200    4.1800    1.5600 C   0  0  0  0  0  0  0  0  0  0  0  0
    3.1000    2.1000    1.1800 C   0  0  0  0  0  0  0  0  0  0  0  0
   -1.7000    5.5400    1.6000 C   0  0  0  0  0  0  0  0  0  0  0  0
    0.6400    4.9200    1.6000 N   0  0  0  0  0  0  0  0  0  0  0  0
   -3.4400    3.9600    1.0000 C   0  0  0  0  0  0  0  0  0  0  0  0
    3.0200    4.8200    1.9200 C   0  0  0  0  0  0  0  0  0  0  0  0
    4.2800    2.7600    1.5600 C   0  0  0  0  0  0  0  0  0  0  0  0
   -3.0600    5.2400    1.4200 C   0  0  0  0  0  0  0  0  0  0  0  0
    4.2400    4.1200    1.9200 C   0  0  0  0  0  0  0  0  0  0  0  0
  1  2  1  0  0  0  0 
  2  3  1  0  0  0  0 
  2  4  1  0  0  0  0 
  3  5  2  0  0  0  0 
  3  6  1  0  0  0  0 
  7  4  2  0  0  0  0 
  4  8  1  0  0  0  0 
  5  9  1  0  0  0  0 
  5 10  1  0  0  0  0 
 11  6  2  0  0  0  0 
 10  7  1  0  0  0  0 
  7 12  1  0  0  0  0 
  8 13  2  0  0  0  0 
  9 14  2  0  0  0  0 
 14 11  1  0  0  0  0 
 15 12  2  0  0  0  0 
 13 15  1  0  0  0  0 
M  END
> <Name>
Phenarsazine Chloride

> <Source>
NIH3DMolFile

> <Tox>
410

> <CAS>
578-94-9

$$$$

  CDK

 11 11  0  0  0  0  0  0  0  0999 V2000
    2.3093   -1.3340    0.0000 C   0  0  0  0  0  0  0  0  0  0  0  0
    3.4455   -2.0057    0.0000 C   0  0  0  0  0  0  0  0  0  0  0  0
    1.1546   -2.0057    0.0000 C   0  0  0  0  0  0  0  0  0  0  0  0
    2.3093   -0.0000    0.0000 N   0  0  0  0  0  0  0  0  0  0  0  0
    3.4455   -3.3351    0.0000 C   0  0  0  0  0  0  0  0  0  0  0  0
    4.6002   -1.3340    0.0000 C   0  0  0  0  0  0  0  0  0  0  0  0
    1.1546   -3.3351    0.0000 C   0  0  0  0  0  0  0  0  0  0  0  0
    0.0000   -1.3340    0.0000 C   0  0  0  0  0  0  0  0  0  0  0  0
    2.3093   -3.9929    0.0000 C   0  0  0  0  0  0  0  0  0  0  0  0
    4.6002   -0.0000    0.0000 C   0  0  0  0  0  0  0  0  0  0  0  0
    0.0000   -0.0000    0.0000 C   0  0  0  0  0  0  0  0  0  0  0  0
  1  2  2  0  0  0  0 
  1  3  1  0  0  0  0 
  1  4  1  0  0  0  0 
  2  5  1  0  0  0  0 
  2  6  1  0  0  0  0 
  7  3  2  0  0  0  0 
  3  8  1  0  0  0  0 
  5  9  2  0  0  0  0 
  6 10  1  0  0  0  0 
  9  7  1  0  0  0  0 
  8 11  1  0  0  0  0 
M  END
> <Name>
2,6-DIETHYLANILINE

> <Source>
DSSTox2DMolFile

> <Tox>
235.5

> <CAS>
579-66-8

$$$$

  CDK

 11 12  0  0  0  0  0  0  0  0999 V2000
    1.4891    2.1434   -0.3122 O   0  0  0  0  0  0  0  0  0  0  0  0
    0.1428    2.0872   -0.4955 C   0  0  0  0  0  0  0  0  0  0  0  0
   -0.5598    3.2256   -0.8800 C   0  0  0  0  0  0  0  0  0  0  0  0
   -0.5402    0.8932   -0.3002 C   0  0  0  0  0  0  0  0  0  0  0  0
   -1.9510    3.1720   -1.0705 C   0  0  0  0  0  0  0  0  0  0  0  0
   -1.9234    0.8402   -0.4896 C   0  0  0  0  0  0  0  0  0  0  0  0
   -2.6509    1.9631   -0.8740 C   0  0  0  0  0  0  0  0  0  0  0  0
   -2.6829    4.3027   -1.4574 C   0  0  0  0  0  0  0  0  0  0  0  0
   -3.9834    1.8773   -1.0478 N   0  0  0  0  0  0  0  0  0  0  0  0
   -4.0560    4.2174   -1.6373 C   0  0  0  0  0  0  0  0  0  0  0  0
   -4.6528    2.9918   -1.4215 C   0  0  0  0  0  0  0  0  0  0  0  0
  1  2  1  0  0  0  0 
  3  2  2  0  0  0  0 
  2  4  1  0  0  0  0 
  5  3  1  0  0  0  0 
  6  4  2  0  0  0  0 
  5  7  2  0  0  0  0 
  5  8  1  0  0  0  0 
  7  6  1  0  0  0  0 
  9  7  1  0  0  0  0 
  8 10  2  0  0  0  0 
  9 11  2  0  0  0  0 
 10 11  1  0  0  0  0 
M  END
> <Name>
6-HDROXYQUINOLINE

> <Source>
Chemidplus3DMolFile

> <Tox>
360

> <CAS>
580-16-5

$$$$

  CDK

 12 13  0  0  0  0  0  0  0  0999 V2000
    3.0258    0.8573    0.0000 C   0  0  0  0  0  0  0  0  0  0  0  0
    3.5301    1.7146    0.0000 C   0  0  0  0  0  0  0  0  0  0  0  0
    3.5301    0.0000    0.0000 C   0  0  0  0  0  0  0  0  0  0  0  0
    2.0172    0.8573    0.0000 C   0  0  0  0  0  0  0  0  0  0  0  0
    4.5387    1.7146    0.0000 C   0  0  0  0  0  0  0  0  0  0  0  0
    4.5387    0.0000    0.0000 N   0  0  0  0  0  0  0  0  0  0  0  0
    1.5129    0.0000    0.0000 C   0  0  0  0  0  0  0  0  0  0  0  0
    1.5129    1.7146    0.0000 C   0  0  0  0  0  0  0  0  0  0  0  0
    5.0430    0.8573    0.0000 C   0  0  0  0  0  0  0  0  0  0  0  0
    0.5043    0.0000    0.0000 C   0  0  0  0  0  0  0  0  0  0  0  0
    0.5043    1.7146    0.0000 N   0  0  0  0  0  0  0  0  0  0  0  0
    0.0000    0.8573    0.0000 C   0  0  0  0  0  0  0  0  0  0  0  0
  2  1  2  0  0  0  0 
  1  3  1  0  0  0  0 
  1  4  1  0  0  0  0 
  5  2  1  0  0  0  0 
  3  6  2  0  0  0  0 
  7  4  2  0  0  0  0 
  4  8  1  0  0  0  0 
  9  5  2  0  0  0  0 
  6  9  1  0  0  0  0 
 10  7  1  0  0  0  0 
  8 11  2  0  0  0  0 
 12 10  2  0  0  0  0 
 11 12  1  0  0  0  0 
M  END
> <Name>
3,3'-BIPYRIDINE

> <Source>
NIST2DMolFile

> <Tox>
291.5

> <CAS>
581-46-4

$$$$

  CDK

 12 13  0  0  0  0  0  0  0  0999 V2000
    1.9079    3.3099    0.8559 C   0  0  0  0  0  0  0  0  0  0  0  0
    0.6219    4.0532    0.8559 C   0  0  0  0  0  0  0  0  0  0  0  0
    3.1144    3.9649    0.8559 C   0  0  0  0  0  0  0  0  0  0  0  0
    1.8753    1.8900    0.8576 C   0  0  0  0  0  0  0  0  0  0  0  0
    4.3319    3.2323    0.8587 C   0  0  0  0  0  0  0  0  0  0  0  0
    3.0340    1.1651    0.8596 C   0  0  0  0  0  0  0  0  0  0  0  0
    4.2930    1.8239    0.8603 C   0  0  0  0  0  0  0  0  0  0  0  0
    5.5883    3.8959    0.8602 C   0  0  0  0  0  0  0  0  0  0  0  0
    5.5127    1.0951    0.8630 C   0  0  0  0  0  0  0  0  0  0  0  0
    6.7553    3.1735    0.8636 C   0  0  0  0  0  0  0  0  0  0  0  0
    6.7106    1.7540    0.8640 C   0  0  0  0  0  0  0  0  0  0  0  0
    8.0805    3.8448    0.8688 C   0  0  0  0  0  0  0  0  0  0  0  0
  1  2  1  0  0  0  0 
  1  3  2  0  0  0  0 
  4  1  1  0  0  0  0 
  3  5  1  0  0  0  0 
  6  4  2  0  0  0  0 
  7  5  2  0  0  0  0 
  5  8  1  0  0  0  0 
  7  6  1  0  0  0  0 
  9  7  1  0  0  0  0 
  8 10  2  0  0  0  0 
 11  9  2  0  0  0  0 
 10 11  1  0  0  0  0 
 10 12  1  0  0  0  0 
M  END
> <Name>
2,7-DIMETHYLNAPHTHALENE

> <Source>
NIST3DMolFile

> <Tox>
265

> <CAS>
582-16-1

$$$$

  CDK

  8  8  0  0  0  0  0  0  0  0999 V2000
    0.0000    1.4993    0.0000 C   0  0  0  0  0  0  0  0  0  0  0  0
    0.8996    1.9991    0.0000 C   0  0  0  0  0  0  0  0  0  0  0  0
    0.0000    0.4998    0.0000 C   0  0  0  0  0  0  0  0  0  0  0  0
    1.7492    1.4993    0.0000 C   0  0  0  0  0  0  0  0  0  0  0  0
    0.8996    0.0000    0.0000 N   0  0  0  0  0  0  0  0  0  0  0  0
    1.7492    0.4998    0.0000 C   0  0  0  0  0  0  0  0  0  0  0  0
    2.5988    1.9991    0.0000 C   0  0  0  0  0  0  0  0  0  0  0  0
    2.5988    0.0000    0.0000 C   0  0  0  0  0  0  0  0  0  0  0  0
  1  2  2  0  0  0  0 
  3  1  1  0  0  0  0 
  2  4  1  0  0  0  0 
  5  3  2  0  0  0  0 
  4  6  2  0  0  0  0 
  4  7  1  0  0  0  0 
  6  5  1  0  0  0  0 
  6  8  1  0  0  0  0 
M  END
> <Name>
2,3-DIMETHYLPYRIDINE

> <Source>
NIST2DMolFile

> <Tox>
161.2

> <CAS>
583-61-9

$$$$

  CDK

  9  9  0  0  0  0  0  0  0  0999 V2000
    1.7493    2.9988    0.0000 C   0  0  0  0  0  0  0  0  0  0  0  0
    1.7493    1.9992    0.0000 C   0  0  0  0  0  0  0  0  0  0  0  0
    0.8996    1.4994    0.0000 C   0  0  0  0  0  0  0  0  0  0  0  0
    2.5989    1.4994    0.0000 C   0  0  0  0  0  0  0  0  0  0  0  0
    0.0000    1.9992    0.0000 C   0  0  0  0  0  0  0  0  0  0  0  0
    0.8996    0.4998    0.0000 C   0  0  0  0  0  0  0  0  0  0  0  0
    2.5989    0.4998    0.0000 C   0  0  0  0  0  0  0  0  0  0  0  0
    1.7493    0.0000    0.0000 C   0  0  0  0  0  0  0  0  0  0  0  0
    3.4985    0.0000    0.0000 Br  0  0  0  0  0  0  0  0  0  0  0  0
  1  2  1  0  0  0  0 
  3  2  2  0  0  0  0 
  2  4  1  0  0  0  0 
  3  5  1  0  0  0  0 
  6  3  1  0  0  0  0 
  4  7  2  0  0  0  0 
  8  6  2  0  0  0  0 
  7  8  1  0  0  0  0 
  7  9  1  0  0  0  0 
M  END
> <Name>
BENZENE, 4-BROMO-1,2-DIMETHYL-

> <Source>
NIST2DMolFile

> <Tox>
214.5

> <CAS>
583-71-1

$$$$

  CDK

  9  9  0  0  0  0  0  0  0  0999 V2000
    4.6082   -2.6589    0.0000 O   0  0  0  0  0  0  0  0  0  0  0  0
    3.4561   -1.9953    0.0000 C   0  0  0  0  0  0  0  0  0  0  0  0
    2.3041   -2.6589    0.0000 C   0  0  0  0  0  0  0  0  0  0  0  0
    3.4561   -0.6636    0.0000 C   0  0  0  0  0  0  0  0  0  0  0  0
    1.1520   -1.9953    0.0000 C   0  0  0  0  0  0  0  0  0  0  0  0
    2.3041   -0.0000    0.0000 C   0  0  0  0  0  0  0  0  0  0  0  0
    4.6082   -0.0000    0.0000 Cl  0  0  0  0  0  0  0  0  0  0  0  0
    0.0000   -2.6589    0.0000 Cl  0  0  0  0  0  0  0  0  0  0  0  0
    1.1520   -0.6636    0.0000 C   0  0  0  0  0  0  0  0  0  0  0  0
  1  2  1  0  0  0  0 
  2  3  2  0  0  0  0 
  2  4  1  0  0  0  0 
  3  5  1  0  0  0  0 
  6  4  2  0  0  0  0 
  4  7  1  0  0  0  0 
  5  8  1  0  0  0  0 
  5  9  2  0  0  0  0 
  9  6  1  0  0  0  0 
M  END
> <Name>
2,5-DICHLOROPHENOL

> <Source>
DSSTox2DMolFile

> <Tox>
211

> <CAS>
583-78-8

$$$$

  CDK

 10 10  0  0  0  0  0  0  0  0999 V2000
    0.5031    1.7106    0.0000 C   0  0  0  0  0  0  0  0  0  0  0  0
    0.0000    0.8553    0.0000 O   0  0  0  0  0  0  0  0  0  0  0  0
    0.0000    2.6163    0.0000 C   0  0  0  0  0  0  0  0  0  0  0  0
    1.5094    1.7106    0.0000 C   0  0  0  0  0  0  0  0  0  0  0  0
    1.9622    0.8553    0.0000 C   0  0  0  0  0  0  0  0  0  0  0  0
    1.9622    2.6163    0.0000 C   0  0  0  0  0  0  0  0  0  0  0  0
    2.9684    0.8553    0.0000 C   0  0  0  0  0  0  0  0  0  0  0  0
    2.9684    2.6163    0.0000 C   0  0  0  0  0  0  0  0  0  0  0  0
    3.4213    1.7106    0.0000 C   0  0  0  0  0  0  0  0  0  0  0  0
    3.4716    0.0000    0.0000 C   0  0  0  0  0  0  0  0  0  0  0  0
  1  2  2  0  0  0  0 
  1  3  1  0  0  0  0 
  1  4  1  0  0  0  0 
  4  5  2  0  0  0  0 
  6  4  1  0  0  0  0 
  5  7  1  0  0  0  0 
  8  6  2  0  0  0  0 
  7  9  2  0  0  0  0 
  7 10  1  0  0  0  0 
  9  8  1  0  0  0  0 
M  END
> <Name>
M-METHYLACETOPHENONE

> <Source>
NIST2DMolFile

> <Tox>
220

> <CAS>
585-74-0

$$$$

  CDK

 14 15  0  0  0  0  0  0  0  0999 V2000
    2.7984    3.6380    0.0000 C   0  0  0  0  0  0  0  0  0  0  0  0
    4.1977    3.6380    0.0000 C   0  0  0  0  0  0  0  0  0  0  0  0
    2.0988    4.8506    0.0000 C   0  0  0  0  0  0  0  0  0  0  0  0
    4.8973    2.4253    0.0000 C   0  0  0  0  0  0  0  0  0  0  0  0
    2.7984    6.0633    0.0000 C   0  0  0  0  0  0  0  0  0  0  0  0
    0.6996    4.8506    0.0000 C   0  0  0  0  0  0  0  0  0  0  0  0
    4.1977    1.2127    0.0000 C   0  0  0  0  0  0  0  0  0  0  0  0
    6.2965    2.4253    0.0000 C   0  0  0  0  0  0  0  0  0  0  0  0
    2.0988    7.2760    0.0000 C   0  0  0  0  0  0  0  0  0  0  0  0
    0.0000    6.0633    0.0000 C   0  0  0  0  0  0  0  0  0  0  0  0
    4.8973    0.0000    0.0000 C   0  0  0  0  0  0  0  0  0  0  0  0
    6.9961    1.2127    0.0000 C   0  0  0  0  0  0  0  0  0  0  0  0
    0.6996    7.2760    0.0000 C   0  0  0  0  0  0  0  0  0  0  0  0
    6.2965    0.0000    0.0000 C   0  0  0  0  0  0  0  0  0  0  0  0
  1  2  2  0  0  0  0 
  1  3  1  0  0  0  0 
  2  4  1  0  0  0  0 
  3  5  2  0  0  0  0 
  3  6  1  0  0  0  0 
  4  7  2  0  0  0  0 
  4  8  1  0  0  0  0 
  5  9  1  0  0  0  0 
 10  6  2  0  0  0  0 
  7 11  1  0  0  0  0 
 12  8  2  0  0  0  0 
  9 13  2  0  0  0  0 
 13 10  1  0  0  0  0 
 11 14  2  0  0  0  0 
 14 12  1  0  0  0  0 
M  END
> <Name>
STILBENE

> <Source>
IndexNet2DMolFile

> <Tox>
306.5

> <CAS>
588-59-0

$$$$

  CDK

  4  3  0  0  0  0  0  0  0  0999 V2000
   -0.4362    0.4904    0.0000 C   0  0  0  0  0  0  0  0  0  0  0  0
    0.4360   -0.4897    0.0000 C   0  0  0  0  0  0  0  0  0  0  0  0
   -2.2569   -0.0164    0.0000 Br  0  0  0  0  0  0  0  0  0  0  0  0
    2.2569    0.0163    0.0000 Br  0  0  0  0  0  0  0  0  0  0  0  0
  1  2  2  0  0  0  0 
  1  3  1  0  0  0  0 
  2  4  1  0  0  0  0 
M  END
> <Name>
ETHENE, 1,2-DIBROMO-, (E)-

> <Source>
DougDB3DMolFile

> <Tox>
108

> <CAS>
590-12-5

$$$$

  CDK

  4  3  0  0  0  0  0  0  0  0999 V2000
    0.0000   -0.0000    0.0000 C   0  0  0  0  0  0  0  0  0  0  0  0
    1.1483   -0.6690    0.0000 C   0  0  0  0  0  0  0  0  0  0  0  0
    2.3001   -0.0000    0.0000 C   0  0  0  0  0  0  0  0  0  0  0  0
    3.4485   -0.6690    0.0000 C   0  0  0  0  0  0  0  0  0  0  0  0
  1  2  2  0  0  0  0 
  2  3  2  0  0  0  0 
  3  4  1  0  0  0  0 
M  END
> <Name>
1,2-BUTADIENE

> <Source>
DSSTox2DMolFile

> <Tox>
10.9

> <CAS>
590-19-2

$$$$

  CDK

  8  7  0  0  0  0  0  0  0  0999 V2000
    1.7320    1.4846    0.0000 C   0  0  0  0  0  0  0  0  0  0  0  0
    0.8907    0.9897    0.0000 C   0  0  0  0  0  0  0  0  0  0  0  0
    2.5733    1.0392    0.0000 C   0  0  0  0  0  0  0  0  0  0  0  0
    0.3959    1.8805    0.0000 C   0  0  0  0  0  0  0  0  0  0  0  0
    1.3856    0.1485    0.0000 C   0  0  0  0  0  0  0  0  0  0  0  0
    0.0000    0.4949    0.0000 C   0  0  0  0  0  0  0  0  0  0  0  0
    2.5733    0.0000    0.0000 C   0  0  0  0  0  0  0  0  0  0  0  0
    3.4640    1.5341    0.0000 O   0  0  0  0  0  0  0  0  0  0  0  0
  1  2  1  0  0  0  0 
  1  3  1  0  0  0  0 
  2  4  1  0  0  0  0 
  2  5  1  0  0  0  0 
  2  6  1  0  0  0  0 
  3  7  1  0  0  0  0 
  3  8  2  0  0  0  0 
M  END
> <Name>
2-PENTANONE, 4,4-DIMETHYL-

> <Source>
NIST2DMolFile

> <Tox>
126

> <CAS>
590-50-1

$$$$

  CDK

  8  7  0  0  0  0  0  0  0  0999 V2000
    3.4157    2.6948    2.5352 C   0  0  0  0  0  0  0  0  0  0  0  0
    2.0812    1.9320    2.4537 C   0  0  0  0  0  0  0  0  0  0  0  0
    4.5783    1.8853    1.9792 C   0  0  0  0  0  0  0  0  0  0  0  0
    0.9682    2.8087    3.0250 C   0  0  0  0  0  0  0  0  0  0  0  0
    2.1742    0.6436    3.2698 C   0  0  0  0  0  0  0  0  0  0  0  0
    1.7635    1.6044    0.9956 C   0  0  0  0  0  0  0  0  0  0  0  0
    5.9035    2.6227    2.0619 C   0  0  0  0  0  0  0  0  0  0  0  0
    6.0321    3.7095    1.0176 C   0  0  0  0  0  0  0  0  0  0  0  0
  1  2  1  0  0  0  0 
  1  3  1  0  0  0  0 
  2  4  1  0  0  0  0 
  2  5  1  0  0  0  0 
  2  6  1  0  0  0  0 
  3  7  1  0  0  0  0 
  7  8  1  0  0  0  0 
M  END
> <Name>
2,2-DIMETHYLHEXANE

> <Source>
NIST3DMolFile

> <Tox>
106.8

> <CAS>
590-73-8

$$$$

  CDK

  8  8  0  0  0  0  0  0  0  0999 V2000
    1.1520   -1.9953    0.0000 C   0  0  0  0  0  0  0  0  0  0  0  0
    1.1520   -0.6635    0.0000 C   0  0  0  0  0  0  0  0  0  0  0  0
    2.3040   -2.6588    0.0000 C   0  0  0  0  0  0  0  0  0  0  0  0
    0.0000   -2.6588    0.0000 C   0  0  0  0  0  0  0  0  0  0  0  0
    2.3040   -0.0000    0.0000 C   0  0  0  0  0  0  0  0  0  0  0  0
    3.4560   -1.9953    0.0000 C   0  0  0  0  0  0  0  0  0  0  0  0
    3.4560   -0.6635    0.0000 C   0  0  0  0  0  0  0  0  0  0  0  0
    4.6080   -2.6588    0.0000 Br  0  0  0  0  0  0  0  0  0  0  0  0
  1  2  2  0  0  0  0 
  1  3  1  0  0  0  0 
  1  4  1  0  0  0  0 
  2  5  1  0  0  0  0 
  6  3  2  0  0  0  0 
  5  7  2  0  0  0  0 
  7  6  1  0  0  0  0 
  6  8  1  0  0  0  0 
M  END
> <Name>
M-BROMOTOLUENE

> <Source>
DSSTox2DMolFile

> <Tox>
183.7

> <CAS>
591-17-3

$$$$

  CDK

  8  8  0  0  0  0  0  0  0  0999 V2000
    3.0343   -1.2014   -0.0003 I   0  0  0  0  0  0  0  0  0  0  0  0
    1.1972   -0.2306    0.0002 C   0  0  0  0  0  0  0  0  0  0  0  0
    0.0160   -0.9728    0.0005 C   0  0  0  0  0  0  0  0  0  0  0  0
    1.1450    1.1633   -0.0002 C   0  0  0  0  0  0  0  0  0  0  0  0
   -1.2172   -0.3208    0.0004 C   0  0  0  0  0  0  0  0  0  0  0  0
   -0.0882    1.8152   -0.0002 C   0  0  0  0  0  0  0  0  0  0  0  0
   -2.8180   -1.3261   -0.0005 Br  0  0  0  0  0  0  0  0  0  0  0  0
   -1.2692    1.0732    0.0001 C   0  0  0  0  0  0  0  0  0  0  0  0
  1  2  1  0  0  0  0 
  3  2  1  0  0  0  0 
  2  4  2  0  0  0  0 
  3  5  2  0  0  0  0 
  4  6  1  0  0  0  0 
  7  5  1  0  0  0  0 
  5  8  1  0  0  0  0 
  8  6  2  0  0  0  0 
M  END
> <Name>
Benzene, 1-bromo-3-iodo-

> <Source>
Chemidplus3DMolFile

> <Tox>
252

> <CAS>
591-18-4

$$$$

  CDK

  8  8  0  0  0  0  0  0  0  0999 V2000
    2.9934    1.7462    0.0000 C   0  0  0  0  0  0  0  0  0  0  0  0
    1.9956    1.7462    0.0000 C   0  0  0  0  0  0  0  0  0  0  0  0
    1.4967    0.8481    0.0000 C   0  0  0  0  0  0  0  0  0  0  0  0
    1.4967    2.5943    0.0000 C   0  0  0  0  0  0  0  0  0  0  0  0
    0.4989    0.8481    0.0000 C   0  0  0  0  0  0  0  0  0  0  0  0
    0.4989    2.5943    0.0000 C   0  0  0  0  0  0  0  0  0  0  0  0
    0.0000    0.0000    0.0000 O   0  0  0  0  0  0  0  0  0  0  0  0
    0.0000    1.7462    0.0000 C   0  0  0  0  0  0  0  0  0  0  0  0
  1  2  1  0  0  0  0 
  3  2  1  0  0  0  0 
  2  4  1  0  0  0  0 
  5  3  1  0  0  0  0 
  4  6  1  0  0  0  0 
  5  7  1  0  0  0  0 
  8  5  1  0  0  0  0 
  6  8  1  0  0  0  0 
M  END
> <Name>
3-METHYLCYCLOHEXANOL

> <Source>
NIST2DMolFile

> <Tox>
163

> <CAS>
591-23-1

$$$$

  CDK

  8  8  0  0  0  0  0  0  0  0999 V2000
    3.0332    1.7404    0.0000 C   0  0  0  0  0  0  0  0  0  0  0  0
    2.0387    1.7404    0.0000 C   0  0  0  0  0  0  0  0  0  0  0  0
    1.5415    0.8453    0.0000 C   0  0  0  0  0  0  0  0  0  0  0  0
    1.5415    2.5857    0.0000 C   0  0  0  0  0  0  0  0  0  0  0  0
    0.4972    0.8453    0.0000 C   0  0  0  0  0  0  0  0  0  0  0  0
    0.5470    2.5857    0.0000 C   0  0  0  0  0  0  0  0  0  0  0  0
    0.0000    0.0000    0.0000 O   0  0  0  0  0  0  0  0  0  0  0  0
    0.0497    1.7404    0.0000 C   0  0  0  0  0  0  0  0  0  0  0  0
  1  2  1  0  0  0  0 
  3  2  1  0  0  0  0 
  2  4  1  0  0  0  0 
  5  3  1  0  0  0  0 
  4  6  1  0  0  0  0 
  5  7  2  0  0  0  0 
  8  5  1  0  0  0  0 
  6  8  1  0  0  0  0 
M  END
> <Name>
3-METHYLCYCLOHEXANONE

> <Source>
NIST2DMolFile

> <Tox>
169.5

> <CAS>
591-24-2

$$$$

  CDK

  9  9  0  0  0  0  0  0  0  0999 V2000
    1.3315   -2.3037    0.0000 C   0  0  0  0  0  0  0  0  0  0  0  0
    1.9950   -1.1518    0.0000 C   0  0  0  0  0  0  0  0  0  0  0  0
    1.9950   -3.4555    0.0000 C   0  0  0  0  0  0  0  0  0  0  0  0
    0.0000   -2.3037    0.0000 O   0  0  0  0  0  0  0  0  0  0  0  0
    3.3265   -1.1518    0.0000 C   0  0  0  0  0  0  0  0  0  0  0  0
    3.3265   -3.4555    0.0000 C   0  0  0  0  0  0  0  0  0  0  0  0
    3.9899   -2.3037    0.0000 C   0  0  0  0  0  0  0  0  0  0  0  0
    3.9899   -0.0000    0.0000 Cl  0  0  0  0  0  0  0  0  0  0  0  0
    3.9899   -4.6073    0.0000 Cl  0  0  0  0  0  0  0  0  0  0  0  0
  1  2  1  0  0  0  0 
  1  3  2  0  0  0  0 
  1  4  1  0  0  0  0 
  2  5  2  0  0  0  0 
  6  3  1  0  0  0  0 
  5  7  1  0  0  0  0 
  5  8  1  0  0  0  0 
  7  6  2  0  0  0  0 
  6  9  1  0  0  0  0 
M  END
> <Name>
3,5-DICHLOROPHENOL

> <Source>
DSSTox2DMolFile

> <Tox>
233

> <CAS>
591-35-5

$$$$

  CDK

  7  7  0  0  0  0  0  0  0  0999 V2000
    0.5412    2.2681    1.6220 C   0  0  0  0  0  0  0  0  0  0  0  0
    2.0277    2.1116    1.8882 C   0  0  0  0  0  0  0  0  0  0  0  0
    2.7744    3.4079    1.5841 C   0  0  0  0  0  0  0  0  0  0  0  0
    2.6059    0.9693    1.0526 C   0  0  0  0  0  0  0  0  0  0  0  0
    4.2512    3.2729    1.9217 C   0  0  0  0  0  0  0  0  0  0  0  0
    4.0922    0.9524    1.0585 C   0  0  0  0  0  0  0  0  0  0  0  0
    4.8343    1.9928    1.4406 C   0  0  0  0  0  0  0  0  0  0  0  0
  1  2  1  0  0  0  0 
  2  3  1  0  0  0  0 
  4  2  1  0  0  0  0 
  3  5  1  0  0  0  0 
  6  4  1  0  0  0  0 
  5  7  1  0  0  0  0 
  7  6  2  0  0  0  0 
M  END
> <Name>
Cyclohexene, 4-methyl-

> <Source>
NIST3DMolFile

> <Tox>
102.7

> <CAS>
591-47-9

$$$$

  CDK

  7  7  0  0  0  0  0  0  0  0999 V2000
    0.4443    2.1398    1.1225 C   0  0  0  0  0  0  0  0  0  0  0  0
    1.9262    2.1119    1.2325 C   0  0  0  0  0  0  0  0  0  0  0  0
    2.6027    3.4436    1.2290 C   0  0  0  0  0  0  0  0  0  0  0  0
    2.6060    0.9615    1.3145 C   0  0  0  0  0  0  0  0  0  0  0  0
    4.0355    3.3725    1.7332 C   0  0  0  0  0  0  0  0  0  0  0  0
    4.0852    0.8909    1.4369 C   0  0  0  0  0  0  0  0  0  0  0  0
    4.7711    2.2053    1.0989 C   0  0  0  0  0  0  0  0  0  0  0  0
  1  2  1  0  0  0  0 
  2  3  1  0  0  0  0 
  4  2  2  0  0  0  0 
  3  5  1  0  0  0  0 
  6  4  1  0  0  0  0 
  5  7  1  0  0  0  0 
  7  6  1  0  0  0  0 
M  END
> <Name>
1-METHYLCYCLOHEXENE

> <Source>
NIST3DMolFile

> <Tox>
110.3

> <CAS>
591-49-1

$$$$

  CDK

  5  4  0  0  0  0  0  0  0  0999 V2000
    2.9302    1.4849    1.6661 C   0  0  0  0  0  0  0  0  0  0  0  0
    2.4055    2.7074    1.7698 C   0  0  0  0  0  0  0  0  0  0  0  0
    3.8765    0.9285    2.6570 C   0  0  0  0  0  0  0  0  0  0  0  0
    1.4686    3.2631    0.7702 C   0  0  0  0  0  0  0  0  0  0  0  0
    0.0000    3.8207    1.6191 Cl  0  0  0  0  0  0  0  0  0  0  0  0
  1  2  2  0  0  0  0 
  1  3  1  0  0  0  0 
  2  4  1  0  0  0  0 
  4  5  1  0  0  0  0 
M  END
> <Name>
1-CHLORO-2-BUTENE

> <Source>
NIST3DMolFile

> <Tox>
73

> <CAS>
591-97-9

$$$$

  CDK

  6  5  0  0  0  0  0  0  0  0999 V2000
    0.0000    0.0000    0.0000 C   0  0  0  0  0  0  0  0  0  0  0  0
    0.9309    0.4137    0.0000 C   0  0  0  0  0  0  0  0  0  0  0  0
    1.8618    0.0000    0.0000 C   0  0  0  0  0  0  0  0  0  0  0  0
    2.6894    0.4137    0.0000 C   0  0  0  0  0  0  0  0  0  0  0  0
    3.6203    0.0000    0.0000 C   0  0  0  0  0  0  0  0  0  0  0  0
    4.5512    0.4137    0.0000 C   0  0  0  0  0  0  0  0  0  0  0  0
  1  2  1  0  0  0  0 
  2  3  1  0  0  0  0 
  3  4  2  0  0  0  0 
  4  5  1  0  0  0  0 
  5  6  1  0  0  0  0 
M  END
> <Name>
3-HEXENE

> <Source>
NIST2DMolFile

> <Tox>
67

> <CAS>
592-47-2

$$$$

  CDK

  6  5  0  0  0  0  0  0  0  0999 V2000
    1.0781    1.2180    1.0686 C   0  0  0  0  0  0  0  0  0  0  0  0
    1.9184    2.2512    1.0234 C   0  0  0  0  0  0  0  0  0  0  0  0
    3.3654    2.1005    0.9742 C   0  0  0  0  0  0  0  0  0  0  0  0
    3.9633    0.9035    0.9595 C   0  0  0  0  0  0  0  0  0  0  0  0
    5.4253    0.6547    0.9078 C   0  0  0  0  0  0  0  0  0  0  0  0
    6.3030    1.8854    0.9156 C   0  0  0  0  0  0  0  0  0  0  0  0
  1  2  2  0  0  0  0 
  2  3  1  0  0  0  0 
  3  4  2  0  0  0  0 
  4  5  1  0  0  0  0 
  5  6  1  0  0  0  0 
M  END
> <Name>
1,3-HEXADIENE

> <Source>
NIST3DMolFile

> <Tox>
73.5

> <CAS>
592-48-3

$$$$

  CDK

  6  5  0  0  0  0  0  0  0  0999 V2000
    0.0000    0.0000    0.0000 C   0  0  0  0  0  0  0  0  0  0  0  0
    0.8543    0.5025    0.0000 C   0  0  0  0  0  0  0  0  0  0  0  0
    1.7589    0.0000    0.0000 C   0  0  0  0  0  0  0  0  0  0  0  0
    2.6132    0.5025    0.0000 C   0  0  0  0  0  0  0  0  0  0  0  0
    3.4172    0.0000    0.0000 C   0  0  0  0  0  0  0  0  0  0  0  0
    4.3218    0.5025    0.0000 F   0  0  0  0  0  0  0  0  0  0  0  0
  1  2  1  0  0  0  0 
  2  3  1  0  0  0  0 
  3  4  1  0  0  0  0 
  4  5  1  0  0  0  0 
  5  6  1  0  0  0  0 
M  END
> <Name>
1-FLUOROPENTANE

> <Source>
NIST2DMolFile

> <Tox>
62.8

> <CAS>
592-50-7

$$$$

  CDK

  7  6  0  0  0  0  0  0  0  0999 V2000
    1.7489    0.4997    0.0000 C   0  0  0  0  0  0  0  0  0  0  0  0
    2.5984    0.0000    0.0000 C   0  0  0  0  0  0  0  0  0  0  0  0
    0.8495    0.0000    0.0000 C   0  0  0  0  0  0  0  0  0  0  0  0
    3.4478    0.4997    0.0000 O   0  0  0  0  0  0  0  0  0  0  0  0
    0.0000    0.4997    0.0000 C   0  0  0  0  0  0  0  0  0  0  0  0
    4.3473    0.0000    0.0000 C   0  0  0  0  0  0  0  0  0  0  0  0
    5.1968    0.4997    0.0000 O   0  0  0  0  0  0  0  0  0  0  0  0
  1  2  1  0  0  0  0 
  1  3  1  0  0  0  0 
  2  4  1  0  0  0  0 
  3  5  1  0  0  0  0 
  4  6  1  0  0  0  0 
  6  7  2  0  0  0  0 
M  END
> <Name>
N-BUTYLFORMATE

> <Source>
NIST2DMolFile

> <Tox>
106.1

> <CAS>
592-84-7

$$$$

  CDK

  4  3  0  0  0  0  0  0  0  0999 V2000
    1.2127    0.6996    0.0000 P   0  0  0  0  0  0  0  0  0  0  0  0
    2.4253    0.0000    0.0000 C   0  0  0  0  0  0  0  0  0  0  0  0
    0.0000    0.0000    0.0000 C   0  0  0  0  0  0  0  0  0  0  0  0
    1.2127    2.0988    0.0000 C   0  0  0  0  0  0  0  0  0  0  0  0
  1  2  1  0  0  0  0 
  1  3  1  0  0  0  0 
  1  4  1  0  0  0  0 
M  END
> <Name>
PHOSPHINE, TRIMETHYL-

> <Source>
IndexNet2DMolFile

> <Tox>
37.5

> <CAS>
594-09-2

$$$$

  CDK

  5  4  0  0  0  0  0  0  0  0999 V2000
    0.4805   -0.0000    0.0000 C   0  0  0  0  0  0  0  0  0  0  0  0
    1.1550   -1.1550    0.0000 C   0  0  0  0  0  0  0  0  0  0  0  0
    2.2938   -0.4967    0.0000 C   0  0  0  0  0  0  0  0  0  0  0  0
    0.0000   -1.8295    0.0000 Cl  0  0  0  0  0  0  0  0  0  0  0  0
    1.8134   -2.3100    0.0000 Cl  0  0  0  0  0  0  0  0  0  0  0  0
  1  2  1  0  0  0  0 
  2  3  1  0  0  0  0 
  2  4  1  0  0  0  0 
  2  5  1  0  0  0  0 
M  END
> <Name>
Propane, 2,2-dichloro-

> <Source>
DSSTox2DMolFile

> <Tox>
69.3

> <CAS>
594-20-7

$$$$

  CDK

  6  5  0  0  0  0  0  0  0  0999 V2000
    2.0765    0.9623    0.0000 C   0  0  0  0  0  0  0  0  0  0  0  0
    1.0129    0.9623    0.0000 C   0  0  0  0  0  0  0  0  0  0  0  0
    2.5830    1.8233    0.0000 Br  0  0  0  0  0  0  0  0  0  0  0  0
    1.0129    0.0000    0.0000 Br  0  0  0  0  0  0  0  0  0  0  0  0
    1.0129    1.9246    0.0000 C   0  0  0  0  0  0  0  0  0  0  0  0
    0.0000    0.9623    0.0000 C   0  0  0  0  0  0  0  0  0  0  0  0
  1  2  1  0  0  0  0 
  1  3  1  0  0  0  0 
  2  4  1  0  0  0  0 
  2  5  1  0  0  0  0 
  2  6  1  0  0  0  0 
M  END
> <Name>
1,2-DIBROMO-2-METHYLPROPANE

> <Source>
NIST2DMolFile

> <Tox>
150

> <CAS>
594-34-3

$$$$

  CDK

  6  5  0  0  0  0  0  0  0  0999 V2000
    0.5014    1.0028    0.0000 C   0  0  0  0  0  0  0  0  0  0  0  0
    1.5543    1.0028    0.0000 C   0  0  0  0  0  0  0  0  0  0  0  0
    0.0000    1.8551    0.0000 Cl  0  0  0  0  0  0  0  0  0  0  0  0
    1.5543    0.0000    0.0000 C   0  0  0  0  0  0  0  0  0  0  0  0
    1.5543    1.9554    0.0000 C   0  0  0  0  0  0  0  0  0  0  0  0
    2.5571    1.0028    0.0000 Cl  0  0  0  0  0  0  0  0  0  0  0  0
  1  2  1  0  0  0  0 
  1  3  1  0  0  0  0 
  2  4  1  0  0  0  0 
  2  5  1  0  0  0  0 
  2  6  1  0  0  0  0 
M  END
> <Name>
1,2-DICHLORO-2-METHYLPROPANE

> <Source>
NIST2DMolFile

> <Tox>
106.5

> <CAS>
594-37-6

$$$$

  CDK

  7  6  0  0  0  0  0  0  0  0999 V2000
    1.3304   -3.3260    0.0000 Cl  0  0  0  0  0  0  0  0  0  0  0  0
    1.3304   -1.9956    0.0000 C   0  0  0  0  0  0  0  0  0  0  0  0
    2.6608   -1.9956    0.0000 Cl  0  0  0  0  0  0  0  0  0  0  0  0
    1.3304   -0.6652    0.0000 N   0  0  0  0  0  0  0  0  0  0  0  0
    0.0000   -1.9956    0.0000 C   0  0  0  0  0  0  0  0  0  0  0  0
    2.4812   -0.0000    0.0000 O   0  0  0  0  0  0  0  0  0  0  0  0
    0.1796   -0.0000    0.0000 O   0  0  0  0  0  0  0  0  0  0  0  0
  1  2  1  0  0  0  0 
  2  3  1  0  0  0  0 
  2  4  1  0  0  0  0 
  2  5  1  0  0  0  0 
  4  6  2  0  0  0  0 
  4  7  1  0  0  0  0 
M  CHG  1   4   1
M  CHG  1   7  -1
M  END
> <Name>
1,1-DICHLORO-1-NITROETHANE

> <Source>
DSSTox2DMolFile

> <Tox>
123.5

> <CAS>
594-72-9

$$$$

  CDK

  7  6  0  0  0  0  0  0  0  0999 V2000
   -0.3724   -0.9763    0.0000 O   0  0  0  0  0  0  0  0  0  0  0  0
    0.0102   -0.2453    0.0000 C   0  0  0  0  0  0  0  0  0  0  0  0
   -0.7208    0.1372    0.0000 C   0  0  0  0  0  0  0  0  0  0  0  0
    0.7411   -0.6279    0.0000 C   0  0  0  0  0  0  0  0  0  0  0  0
    0.3927    0.4856    0.0000 C   0  0  0  0  0  0  0  0  0  0  0  0
   -1.1033   -0.5937    0.0000 Cl  0  0  0  0  0  0  0  0  0  0  0  0
    1.1237    0.1031    0.0000 Cl  0  0  0  0  0  0  0  0  0  0  0  0
  1  2  1  0  0  0  0 
  2  3  1  0  0  0  0 
  2  4  1  0  0  0  0 
  2  5  1  0  0  0  0 
  3  6  1  0  0  0  0 
  4  7  1  0  0  0  0 
M  END
> <Name>
2-Propanol, 1,3-dichloro-2-methyl-

> <Source>
Smiles

> <Tox>
174.5

> <CAS>
597-32-0

$$$$

  CDK

  8  7  0  0  0  0  0  0  0  0999 V2000
    0.4510    1.5034    0.0000 C   0  0  0  0  0  0  0  0  0  0  0  0
    1.4533    1.5034    0.0000 C   0  0  0  0  0  0  0  0  0  0  0  0
    0.0000    2.3554    0.0000 C   0  0  0  0  0  0  0  0  0  0  0  0
    2.5057    1.5034    0.0000 C   0  0  0  0  0  0  0  0  0  0  0  0
    1.4533    0.5011    0.0000 C   0  0  0  0  0  0  0  0  0  0  0  0
    1.4533    2.5057    0.0000 O   0  0  0  0  0  0  0  0  0  0  0  0
    3.0068    2.3554    0.0000 C   0  0  0  0  0  0  0  0  0  0  0  0
    2.3052    0.0000    0.0000 C   0  0  0  0  0  0  0  0  0  0  0  0
  1  2  1  0  0  0  0 
  1  3  1  0  0  0  0 
  2  4  1  0  0  0  0 
  2  5  1  0  0  0  0 
  2  6  1  0  0  0  0 
  4  7  1  0  0  0  0 
  5  8  1  0  0  0  0 
M  END
> <Name>
3-ETHYL-3-PENTANOL

> <Source>
NIST2DMolFile

> <Tox>
142

> <CAS>
597-49-9

$$$$

  CDK

  8  7  0  0  0  0  0  0  0  0999 V2000
    2.5508    0.9503    0.0000 C   0  0  0  0  0  0  0  0  0  0  0  0
    1.5004    0.9503    0.0000 C   0  0  0  0  0  0  0  0  0  0  0  0
    3.0009    1.8005    0.0000 C   0  0  0  0  0  0  0  0  0  0  0  0
    0.5001    0.9503    0.0000 C   0  0  0  0  0  0  0  0  0  0  0  0
    1.5004    0.0000    0.0000 C   0  0  0  0  0  0  0  0  0  0  0  0
    1.5004    2.0006    0.0000 O   0  0  0  0  0  0  0  0  0  0  0  0
    4.0012    1.8005    0.0000 C   0  0  0  0  0  0  0  0  0  0  0  0
    0.0000    0.1000    0.0000 C   0  0  0  0  0  0  0  0  0  0  0  0
  1  2  1  0  0  0  0 
  1  3  1  0  0  0  0 
  2  4  1  0  0  0  0 
  2  5  1  0  0  0  0 
  2  6  1  0  0  0  0 
  3  7  1  0  0  0  0 
  4  8  1  0  0  0  0 
M  END
> <Name>
3-METHYL-3-HEXANOL

> <Source>
NIST2DMolFile

> <Tox>
143

> <CAS>
597-96-6

$$$$

  CDK

  9  8  0  0  0  0  0  0  0  0999 V2000
    1.4890    0.9927    0.0000 C   0  0  0  0  0  0  0  0  0  0  0  0
    2.4817    0.9927    0.0000 C   0  0  0  0  0  0  0  0  0  0  0  0
    0.9927    0.0993    0.0000 C   0  0  0  0  0  0  0  0  0  0  0  0
    3.4743    0.9927    0.0000 C   0  0  0  0  0  0  0  0  0  0  0  0
    2.4817    0.0000    0.0000 C   0  0  0  0  0  0  0  0  0  0  0  0
    2.4817    1.9853    0.0000 O   0  0  0  0  0  0  0  0  0  0  0  0
    0.0000    0.0993    0.0000 C   0  0  0  0  0  0  0  0  0  0  0  0
    3.9707    1.8861    0.0000 C   0  0  0  0  0  0  0  0  0  0  0  0
    4.9633    1.8861    0.0000 C   0  0  0  0  0  0  0  0  0  0  0  0
  1  2  1  0  0  0  0 
  1  3  1  0  0  0  0 
  2  4  1  0  0  0  0 
  2  5  1  0  0  0  0 
  2  6  1  0  0  0  0 
  3  7  1  0  0  0  0 
  4  8  1  0  0  0  0 
  8  9  1  0  0  0  0 
M  END
> <Name>
4-HEPTANOL, 4-METHYL-

> <Source>
NIST2DMolFile

> <Tox>
161

> <CAS>
598-01-6

$$$$

  CDK

  9  8  0  0  0  0  0  0  0  0999 V2000
    0.0000    0.4536    0.0000 C   0  0  0  0  0  0  0  0  0  0  0  0
    0.8568    0.9577    0.0000 C   0  0  0  0  0  0  0  0  0  0  0  0
    1.7137    0.4536    0.0000 C   0  0  0  0  0  0  0  0  0  0  0  0
    2.6209    0.9577    0.0000 S   0  0  0  0  0  0  0  0  0  0  0  0
    3.4778    0.4536    0.0000 C   0  0  0  0  0  0  0  0  0  0  0  0
    2.6209    1.9153    0.0000 O   0  0  0  0  0  0  0  0  0  0  0  0
    2.8730    0.0000    0.0000 O   0  0  0  0  0  0  0  0  0  0  0  0
    4.3346    0.9577    0.0000 C   0  0  0  0  0  0  0  0  0  0  0  0
    5.2419    0.4536    0.0000 C   0  0  0  0  0  0  0  0  0  0  0  0
  1  2  1  0  0  0  0 
  2  3  1  0  0  0  0 
  3  4  1  0  0  0  0 
  4  5  1  0  0  0  0 
  4  6  2  0  0  0  0 
  4  7  2  0  0  0  0 
  5  8  1  0  0  0  0 
  8  9  1  0  0  0  0 
M  END
> <Name>
PROPYL SULFONE

> <Source>
NIST2DMolFile

> <Tox>
270

> <CAS>
598-03-8

$$$$

  CDK

  6  6  0  0  0  0  0  0  0  0999 V2000
    0.0000    0.0000    0.0000 O   0  0  0  0  0  0  0  0  0  0  0  0
   -1.1800    0.7200   -0.0600 C   0  0  0  0  0  0  0  0  0  0  0  0
    0.2200    1.3400    0.2600 C   0  0  0  0  0  0  0  0  0  0  0  0
   -2.0800    0.2600    1.0600 C   0  0  0  0  0  0  0  0  0  0  0  0
   -1.6800    0.7200   -1.5000 C   0  0  0  0  0  0  0  0  0  0  0  0
   -3.7200    0.8800    0.8200 Cl  0  0  0  0  0  0  0  0  0  0  0  0
  1  2  1  0  0  0  0 
  1  3  1  0  0  0  0 
  3  2  1  0  0  0  0 
  2  4  1  0  0  0  0 
  2  5  1  0  0  0  0 
  4  6  1  0  0  0  0 
M  END
> <Name>
OXIRANE, 2-(CHLOROMETHYL)-2-METHYL-

> <Source>
NIH3DMolFile

> <Tox>
122

> <CAS>
598-09-4

$$$$

  CDK

  5  4  0  0  0  0  0  0  0  0999 V2000
    1.9371    1.4834    1.7032 O   0  0  0  0  0  0  0  0  0  0  0  0
    0.7245    1.0896    1.1270 C   0  0  0  0  0  0  0  0  0  0  0  0
    3.2199    1.0608    1.0001 N   0  0  0  0  0  0  0  0  0  0  0  0
    3.1186    0.4153    0.0000 O   0  0  0  0  0  0  0  0  0  0  0  0
    4.1474    1.4761    1.6131 O   0  0  0  0  0  0  0  0  0  0  0  0
  1  2  1  0  0  0  0 
  1  3  1  0  0  0  0 
  3  4  2  0  0  0  0 
  3  5  2  0  0  0  0 
M  END
> <Name>
METHYLNITRATE

> <Source>
NIST3DMolFile

> <Tox>
64.6

> <CAS>
598-58-3

$$$$

  CDK

  6  5  0  0  0  0  0  0  0  0999 V2000
    0.0000    0.9734    0.0000 F   0  0  0  0  0  0  0  0  0  0  0  0
    0.8709    1.4345    0.0000 C   0  0  0  0  0  0  0  0  0  0  0  0
    1.7419    0.9734    0.0000 C   0  0  0  0  0  0  0  0  0  0  0  0
    0.8709    2.4591    0.0000 F   0  0  0  0  0  0  0  0  0  0  0  0
    2.6641    1.4345    0.0000 Br  0  0  0  0  0  0  0  0  0  0  0  0
    1.7419    0.0000    0.0000 F   0  0  0  0  0  0  0  0  0  0  0  0
  1  2  1  0  0  0  0 
  2  3  2  0  0  0  0 
  2  4  1  0  0  0  0 
  3  5  1  0  0  0  0 
  3  6  1  0  0  0  0 
M  END
> <Name>
2-BROMO-1,1,2-TRIFLUOROETHYLENE

> <Source>
NIST2DMolFile

> <Tox>
-1

> <CAS>
598-73-2

$$$$

  CDK

  6  5  0  0  0  0  0  0  0  0999 V2000
    0.8744    2.4690    0.0000 C   0  0  0  0  0  0  0  0  0  0  0  0
    0.8744    1.4917    0.0000 C   0  0  0  0  0  0  0  0  0  0  0  0
    0.0000    0.9773    0.0000 C   0  0  0  0  0  0  0  0  0  0  0  0
    1.6974    1.0288    0.0000 C   0  0  0  0  0  0  0  0  0  0  0  0
    1.6974    0.0000    0.0000 Cl  0  0  0  0  0  0  0  0  0  0  0  0
    2.6233    1.4917    0.0000 Cl  0  0  0  0  0  0  0  0  0  0  0  0
  1  2  1  0  0  0  0 
  2  3  1  0  0  0  0 
  2  4  1  0  0  0  0 
  4  5  1  0  0  0  0 
  4  6  1  0  0  0  0 
M  END
> <Name>
1,1-dichloro-2-methylpropane

> <Source>
NIST2DMolFile

> <Tox>
105.5

> <CAS>
598-76-5

$$$$

  CDK

  6  5  0  0  0  0  0  0  0  0999 V2000
    0.0000    0.0000    0.0000 C   0  0  0  0  0  0  0  0  0  0  0  0
    1.3600    0.7000   -0.1200 C   0  0  0  0  0  0  0  0  0  0  0  0
    2.1400    0.4200    1.0800 N   0  0  0  0  0  0  0  0  0  0  0  0
    2.2200    0.0600   -1.5400 Cl  0  0  0  0  0  0  0  0  0  0  0  0
    2.8400   -0.5800    1.0800 O   0  0  0  0  0  0  0  0  0  0  0  0
    2.0400    1.2200    2.0200 O   0  0  0  0  0  0  0  0  0  0  0  0
  1  2  1  0  0  0  0 
  2  3  1  0  0  0  0 
  2  4  1  0  0  0  0 
  3  5  2  0  0  0  0 
  3  6  1  0  0  0  0 
M  CHG  1   3   1
M  CHG  1   6  -1
M  END
> <Name>
ETHANE, 1-CHLORO-1-NITRO-

> <Source>
NIH3DMolFile

> <Tox>
124.5

> <CAS>
598-92-5

$$$$

  CDK

 17 18  0  0  0  0  0  0  0  0999 V2000
    0.0000    0.0000    0.0000 O   0  0  0  0  0  0  0  0  0  0  0  0
   -1.4400    0.2400    0.0600 S   0  0  0  0  0  0  0  0  0  0  0  0
   -1.9400    1.0400   -1.0400 O   0  0  0  0  0  0  0  0  0  0  0  0
   -2.2600   -1.2800    0.0800 C   0  0  0  0  0  0  0  0  0  0  0  0
   -1.7600    1.1000    1.5200 C   0  0  0  0  0  0  0  0  0  0  0  0
   -2.7400   -1.8000   -1.1200 C   0  0  0  0  0  0  0  0  0  0  0  0
   -2.4200   -1.9600    1.2800 C   0  0  0  0  0  0  0  0  0  0  0  0
   -0.7200    1.7400    2.2200 C   0  0  0  0  0  0  0  0  0  0  0  0
   -3.0800    1.1800    2.0200 C   0  0  0  0  0  0  0  0  0  0  0  0
   -3.4000   -3.0400   -1.1200 C   0  0  0  0  0  0  0  0  0  0  0  0
   -3.0800   -3.2000    1.2800 C   0  0  0  0  0  0  0  0  0  0  0  0
   -0.9800    2.4400    3.4000 C   0  0  0  0  0  0  0  0  0  0  0  0
   -3.3400    1.8800    3.2000 C   0  0  0  0  0  0  0  0  0  0  0  0
   -3.5800   -3.7400    0.0800 C   0  0  0  0  0  0  0  0  0  0  0  0
   -2.3000    2.5000    3.9000 C   0  0  0  0  0  0  0  0  0  0  0  0
   -4.2800   -5.0600    0.0800 C   0  0  0  0  0  0  0  0  0  0  0  0
   -2.5800    3.2600    5.1600 C   0  0  0  0  0  0  0  0  0  0  0  0
  1  2  2  0  0  0  0 
  2  3  2  0  0  0  0 
  2  4  1  0  0  0  0 
  2  5  1  0  0  0  0 
  4  6  2  0  0  0  0 
  4  7  1  0  0  0  0 
  5  8  2  0  0  0  0 
  5  9  1  0  0  0  0 
  6 10  1  0  0  0  0 
 11  7  2  0  0  0  0 
  8 12  1  0  0  0  0 
 13  9  2  0  0  0  0 
 10 14  2  0  0  0  0 
 14 11  1  0  0  0  0 
 12 15  2  0  0  0  0 
 15 13  1  0  0  0  0 
 14 16  1  0  0  0  0 
 15 17  1  0  0  0  0 
M  END
> <Name>
Benzene, 1,1'-sulfonylbis 4-methyl-

> <Source>
NIH3DMolFile

> <Tox>
406

> <CAS>
599-66-6

$$$$

  CDK

  7  6  0  0  0  0  0  0  0  0999 V2000
    0.0000    1.0000    0.0000 C   0  0  0  0  0  0  0  0  0  0  0  0
    0.8661    1.5000    0.0000 C   0  0  0  0  0  0  0  0  0  0  0  0
    1.7321    1.0000    0.0000 C   0  0  0  0  0  0  0  0  0  0  0  0
    2.5981    1.5000    0.0000 C   0  0  0  0  0  0  0  0  0  0  0  0
    1.7321    0.0000    0.0000 C   0  0  0  0  0  0  0  0  0  0  0  0
    3.4641    1.0000    0.0000 O   0  0  0  0  0  0  0  0  0  0  0  0
    2.5981    2.5000    0.0000 O   0  0  0  0  0  0  0  0  0  0  0  0
  1  2  1  0  0  0  0 
  2  3  1  0  0  0  0 
  3  4  1  0  0  0  0 
  3  5  1  0  0  0  0 
  4  6  1  0  0  0  0 
  4  7  2  0  0  0  0 
M  END
> <Name>
Butanoic acid, 2-methyl-, (.+-.)-

> <Source>
NIST2DMolFile

> <Tox>
177

> <CAS>
600-07-7

$$$$

  CDK

  8  7  0  0  0  0  0  0  0  0999 V2000
    0.0000   -3.4549    0.0000 C   0  0  0  0  0  0  0  0  0  0  0  0
    1.3313   -3.4549    0.0000 C   0  0  0  0  0  0  0  0  0  0  0  0
    1.9946   -4.6066    0.0000 C   0  0  0  0  0  0  0  0  0  0  0  0
    1.9946   -2.3033    0.0000 C   0  0  0  0  0  0  0  0  0  0  0  0
    3.3259   -2.3033    0.0000 O   0  0  0  0  0  0  0  0  0  0  0  0
    1.3313   -1.1516    0.0000 C   0  0  0  0  0  0  0  0  0  0  0  0
    0.0000   -1.1516    0.0000 C   0  0  0  0  0  0  0  0  0  0  0  0
    1.9946   -0.0000    0.0000 C   0  0  0  0  0  0  0  0  0  0  0  0
  1  2  1  0  0  0  0 
  2  3  1  0  0  0  0 
  2  4  1  0  0  0  0 
  4  5  1  0  0  0  0 
  4  6  1  0  0  0  0 
  6  7  1  0  0  0  0 
  6  8  1  0  0  0  0 
M  END
> <Name>
2,4-DIMETHYL-3-PENTANOL

> <Source>
DSSTox2DMolFile

> <Tox>
138.7

> <CAS>
600-36-2

$$$$

  CDK

  9  8  0  0  0  0  0  0  0  0999 V2000
    2.5943    1.9956    0.0000 C   0  0  0  0  0  0  0  0  0  0  0  0
    1.7462    1.4967    0.0000 N   0  0  0  0  0  0  0  0  0  0  0  0
    2.5943    2.9934    0.0000 C   0  0  0  0  0  0  0  0  0  0  0  0
    3.4923    1.4967    0.0000 C   0  0  0  0  0  0  0  0  0  0  0  0
    0.8980    1.9956    0.0000 C   0  0  0  0  0  0  0  0  0  0  0  0
    1.7462    0.4989    0.0000 N   0  0  0  0  0  0  0  0  0  0  0  0
    0.8980    2.9934    0.0000 C   0  0  0  0  0  0  0  0  0  0  0  0
    0.0000    1.4967    0.0000 C   0  0  0  0  0  0  0  0  0  0  0  0
    0.8980    0.0000    0.0000 O   0  0  0  0  0  0  0  0  0  0  0  0
  1  2  1  0  0  0  0 
  1  3  1  0  0  0  0 
  1  4  1  0  0  0  0 
  2  5  1  0  0  0  0 
  2  6  1  0  0  0  0 
  5  7  1  0  0  0  0 
  5  8  1  0  0  0  0 
  6  9  2  0  0  0  0 
M  END
> <Name>
DI-I-PROPYLNITROSOAMINE

> <Source>
NIST2DMolFile

> <Tox>
194.5

> <CAS>
601-77-4

$$$$

  CDK

 13 13  0  0  0  0  0  0  0  0999 V2000
    4.5940   -2.6621    0.0000 C   0  0  0  0  0  0  0  0  0  0  0  0
    4.5940   -3.9903    0.0000 C   0  0  0  0  0  0  0  0  0  0  0  0
    3.4441   -1.9894    0.0000 C   0  0  0  0  0  0  0  0  0  0  0  0
    5.7497   -1.9894    0.0000 C   0  0  0  0  0  0  0  0  0  0  0  0
    3.4441   -4.6457    0.0000 C   0  0  0  0  0  0  0  0  0  0  0  0
    2.2884   -2.6621    0.0000 C   0  0  0  0  0  0  0  0  0  0  0  0
    3.4441   -0.6555    0.0000 N   0  0  0  0  0  0  0  0  0  0  0  0
    2.2884   -3.9903    0.0000 C   0  0  0  0  0  0  0  0  0  0  0  0
    1.1384   -1.9894    0.0000 N   0  0  0  0  0  0  0  0  0  0  0  0
    2.2884   -0.0000    0.0000 O   0  0  0  0  0  0  0  0  0  0  0  0
    4.5940   -0.0000    0.0000 O   0  0  0  0  0  0  0  0  0  0  0  0
    0.0000   -2.6621    0.0000 O   0  0  0  0  0  0  0  0  0  0  0  0
    1.1384   -0.6555    0.0000 O   0  0  0  0  0  0  0  0  0  0  0  0
  1  2  2  0  0  0  0 
  1  3  1  0  0  0  0 
  1  4  1  0  0  0  0 
  2  5  1  0  0  0  0 
  6  3  2  0  0  0  0 
  3  7  1  0  0  0  0 
  5  8  2  0  0  0  0 
  8  6  1  0  0  0  0 
  6  9  1  0  0  0  0 
  7 10  1  0  0  0  0 
  7 11  2  0  0  0  0 
  9 12  1  0  0  0  0 
  9 13  2  0  0  0  0 
M  CHG  1   7   1
M  CHG  1   9   1
M  CHG  1  10  -1
M  CHG  1  12  -1
M  END
> <Name>
2,3-DINITROTOLUENE

> <Source>
DSSTox2DMolFile

> <Tox>
284

> <CAS>
602-01-7

$$$$

  CDK

 12 12  0  0  0  0  0  0  0  0999 V2000
    3.4903    2.9917    0.0000 O   0  0  0  0  0  0  0  0  0  0  0  0
    3.4903    1.9945    0.0000 N   0  0  0  0  0  0  0  0  0  0  0  0
    4.4875    1.9945    0.0000 O   0  0  0  0  0  0  0  0  0  0  0  0
    2.5928    1.4958    0.0000 C   0  0  0  0  0  0  0  0  0  0  0  0
    1.7452    1.9945    0.0000 C   0  0  0  0  0  0  0  0  0  0  0  0
    2.5928    0.4986    0.0000 C   0  0  0  0  0  0  0  0  0  0  0  0
    1.7452    2.9917    0.0000 C   0  0  0  0  0  0  0  0  0  0  0  0
    0.8975    1.4958    0.0000 C   0  0  0  0  0  0  0  0  0  0  0  0
    3.4903    0.0000    0.0000 C   0  0  0  0  0  0  0  0  0  0  0  0
    1.7452    0.0000    0.0000 C   0  0  0  0  0  0  0  0  0  0  0  0
    0.8975    0.4986    0.0000 C   0  0  0  0  0  0  0  0  0  0  0  0
    0.0000    0.0000    0.0000 C   0  0  0  0  0  0  0  0  0  0  0  0
  1  2  2  0  0  0  0 
  2  3  2  0  0  0  0 
  2  4  1  0  0  0  0 
  5  4  2  0  0  0  0 
  4  6  1  0  0  0  0 
  7  5  1  0  0  0  0 
  8  5  1  0  0  0  0 
  9  6  1  0  0  0  0 
  6 10  2  0  0  0  0 
 11  8  2  0  0  0  0 
 10 11  1  0  0  0  0 
 12 11  1  0  0  0  0 
M  END
> <Name>
Benzene, 1,3,5-trimethyl-2-nitro-

> <Source>
NIST2DMolFile

> <Tox>
255

> <CAS>
603-71-4

$$$$

  CDK

 22 22  0  0  0  0  0  0  0  0999 V2000
    1.2321    0.9715    0.9185 O   0  0  0  0  0  0  0  0  0  0  0  0
    2.2034    0.1930    1.6257 C   0  0  0  0  0  0  0  0  0  0  0  0
   -0.0803    0.6385    1.1083 C   0  0  0  0  0  0  0  0  0  0  0  0
    3.5898    0.7080    1.2901 C   0  0  0  0  0  0  0  0  0  0  0  0
   -0.4653   -0.2793    1.8421 O   0  0  0  0  0  0  0  0  0  0  0  0
   -0.9661    1.5003    0.3363 C   0  0  0  0  0  0  0  0  0  0  0  0
    3.8099    0.5713   -0.1085 O   0  0  0  0  0  0  0  0  0  0  0  0
   -2.1939    1.0386   -0.1378 C   0  0  0  0  0  0  0  0  0  0  0  0
   -0.5652    2.8102    0.0740 C   0  0  0  0  0  0  0  0  0  0  0  0
    5.0897    1.0603   -0.4843 C   0  0  0  0  0  0  0  0  0  0  0  0
   -3.0209    1.8868   -0.8742 C   0  0  0  0  0  0  0  0  0  0  0  0
   -2.6403   -0.3246    0.1187 C   0  0  0  0  0  0  0  0  0  0  0  0
   -1.3921    3.6586   -0.6622 C   0  0  0  0  0  0  0  0  0  0  0  0
    5.2643    0.8882   -1.9782 C   0  0  0  0  0  0  0  0  0  0  0  0
   -2.6199    3.1969   -1.1364 C   0  0  0  0  0  0  0  0  0  0  0  0
   -2.2335   -1.1785   -0.8686 O   0  0  0  0  0  0  0  0  0  0  0  0
   -3.3044   -0.6673    1.1039 O   0  0  0  0  0  0  0  0  0  0  0  0
   -2.6132   -2.5518   -0.7300 C   0  0  0  0  0  0  0  0  0  0  0  0
   -1.5352   -3.2877    0.0421 C   0  0  0  0  0  0  0  0  0  0  0  0
   -0.3126   -3.2117   -0.6810 O   0  0  0  0  0  0  0  0  0  0  0  0
    0.7419   -3.8680    0.0089 C   0  0  0  0  0  0  0  0  0  0  0  0
    2.0117   -3.7533   -0.8073 C   0  0  0  0  0  0  0  0  0  0  0  0
  1  2  1  0  0  0  0 
  1  3  1  0  0  0  0 
  2  4  1  0  0  0  0 
  5  3  2  0  0  0  0 
  6  3  1  0  0  0  0 
  7  4  1  0  0  0  0 
  6  8  1  0  0  0  0 
  6  9  2  0  0  0  0 
  7 10  1  0  0  0  0 
  8 11  2  0  0  0  0 
  8 12  1  0  0  0  0 
  9 13  1  0  0  0  0 
 10 14  1  0  0  0  0 
 11 15  1  0  0  0  0 
 16 12  1  0  0  0  0 
 17 12  2  0  0  0  0 
 13 15  2  0  0  0  0 
 16 18  1  0  0  0  0 
 18 19  1  0  0  0  0 
 20 19  1  0  0  0  0 
 20 21  1  0  0  0  0 
 21 22  1  0  0  0  0 
M  END
> <Name>
1,2-Benzenedicarboxylic acid, bis(2-ethoxyethyl)

> <Source>
Chemidplus3DMolFile

> <Tox>
345

> <CAS>
605-54-9

$$$$

  CDK

 13 13  0  0  0  0  0  0  0  0999 V2000
    3.4548   -3.9869    0.0000 C   0  0  0  0  0  0  0  0  0  0  0  0
    3.4548   -2.6602    0.0000 C   0  0  0  0  0  0  0  0  0  0  0  0
    2.3009   -1.9900    0.0000 C   0  0  0  0  0  0  0  0  0  0  0  0
    4.6088   -1.9900    0.0000 C   0  0  0  0  0  0  0  0  0  0  0  0
    2.3009   -0.6633    0.0000 C   0  0  0  0  0  0  0  0  0  0  0  0
    1.1539   -2.6602    0.0000 N   0  0  0  0  0  0  0  0  0  0  0  0
    4.6088   -0.6633    0.0000 C   0  0  0  0  0  0  0  0  0  0  0  0
    5.7558   -2.6602    0.0000 N   0  0  0  0  0  0  0  0  0  0  0  0
    3.4548   -0.0000    0.0000 C   0  0  0  0  0  0  0  0  0  0  0  0
    1.1539   -3.9869    0.0000 O   0  0  0  0  0  0  0  0  0  0  0  0
    0.0000   -1.9900    0.0000 O   0  0  0  0  0  0  0  0  0  0  0  0
    5.7558   -3.9869    0.0000 O   0  0  0  0  0  0  0  0  0  0  0  0
    6.9097   -1.9900    0.0000 O   0  0  0  0  0  0  0  0  0  0  0  0
  1  2  1  0  0  0  0 
  2  3  2  0  0  0  0 
  2  4  1  0  0  0  0 
  3  5  1  0  0  0  0 
  3  6  1  0  0  0  0 
  7  4  2  0  0  0  0 
  4  8  1  0  0  0  0 
  5  9  2  0  0  0  0 
  6 10  2  0  0  0  0 
  6 11  1  0  0  0  0 
  9  7  1  0  0  0  0 
  8 12  2  0  0  0  0 
  8 13  1  0  0  0  0 
M  CHG  1   6   1
M  CHG  1   8   1
M  CHG  1  11  -1
M  CHG  1  13  -1
M  END
> <Name>
2,6-DINITROTOLUENE

> <Source>
DSSTox2DMolFile

> <Tox>
300

> <CAS>
606-20-2

$$$$

  CDK

 15 16  0  0  0  0  0  0  0  0999 V2000
    2.3004   -5.9838    0.0000 C   0  0  0  0  0  0  0  0  0  0  0  0
    1.1502   -6.6487    0.0000 C   0  0  0  0  0  0  0  0  0  0  0  0
    2.3004   -4.6541    0.0000 C   0  0  0  0  0  0  0  0  0  0  0  0
    0.0000   -5.9838    0.0000 C   0  0  0  0  0  0  0  0  0  0  0  0
    1.1502   -3.9892    0.0000 C   0  0  0  0  0  0  0  0  0  0  0  0
    3.4573   -3.9892    0.0000 N   0  0  0  0  0  0  0  0  0  0  0  0
    0.0000   -4.6541    0.0000 C   0  0  0  0  0  0  0  0  0  0  0  0
    3.4573   -2.6595    0.0000 C   0  0  0  0  0  0  0  0  0  0  0  0
    4.6075   -4.6541    0.0000 C   0  0  0  0  0  0  0  0  0  0  0  0
    2.3004   -1.9946    0.0000 C   0  0  0  0  0  0  0  0  0  0  0  0
    4.6075   -1.9946    0.0000 C   0  0  0  0  0  0  0  0  0  0  0  0
    5.7577   -3.9892    0.0000 O   0  0  0  0  0  0  0  0  0  0  0  0
    2.3004   -0.6649    0.0000 C   0  0  0  0  0  0  0  0  0  0  0  0
    4.6075   -0.6649    0.0000 C   0  0  0  0  0  0  0  0  0  0  0  0
    3.4573   -0.0000    0.0000 C   0  0  0  0  0  0  0  0  0  0  0  0
  1  2  2  0  0  0  0 
  1  3  1  0  0  0  0 
  2  4  1  0  0  0  0 
  5  3  2  0  0  0  0 
  3  6  1  0  0  0  0 
  4  7  2  0  0  0  0 
  7  5  1  0  0  0  0 
  6  8  1  0  0  0  0 
  6  9  1  0  0  0  0 
  8 10  2  0  0  0  0 
  8 11  1  0  0  0  0 
  9 12  2  0  0  0  0 
 10 13  1  0  0  0  0 
 14 11  2  0  0  0  0 
 13 15  2  0  0  0  0 
 15 14  1  0  0  0  0 
M  END
> <Name>
Formamide, N,N-diphenyl-

> <Source>
DSSTox2DMolFile

> <Tox>
337.5

> <CAS>
607-00-1

$$$$

  CDK

 12 13  0  0  0  0  0  0  0  0999 V2000
    2.5816    2.9788    0.0000 O   0  0  0  0  0  0  0  0  0  0  0  0
    3.4753    3.4753    0.0000 C   0  0  0  0  0  0  0  0  0  0  0  0
    2.5816    1.9859    0.0000 C   0  0  0  0  0  0  0  0  0  0  0  0
    1.7376    1.4894    0.0000 C   0  0  0  0  0  0  0  0  0  0  0  0
    3.4753    1.4894    0.0000 C   0  0  0  0  0  0  0  0  0  0  0  0
    1.7376    0.4965    0.0000 C   0  0  0  0  0  0  0  0  0  0  0  0
    0.8936    1.9859    0.0000 C   0  0  0  0  0  0  0  0  0  0  0  0
    3.4753    0.4965    0.0000 C   0  0  0  0  0  0  0  0  0  0  0  0
    2.5816    0.0000    0.0000 N   0  0  0  0  0  0  0  0  0  0  0  0
    0.8936    0.0000    0.0000 C   0  0  0  0  0  0  0  0  0  0  0  0
    0.0000    1.4894    0.0000 C   0  0  0  0  0  0  0  0  0  0  0  0
    0.0000    0.4965    0.0000 C   0  0  0  0  0  0  0  0  0  0  0  0
  1  2  1  0  0  0  0 
  1  3  1  0  0  0  0 
  4  3  2  0  0  0  0 
  3  5  1  0  0  0  0 
  4  6  1  0  0  0  0 
  7  4  1  0  0  0  0 
  5  8  2  0  0  0  0 
  9  6  2  0  0  0  0 
  6 10  1  0  0  0  0 
 11  7  2  0  0  0  0 
  8  9  1  0  0  0  0 
 10 12  2  0  0  0  0 
 12 11  1  0  0  0  0 
M  END
> <Name>
QUINOLINE, 4-METHOXY-

> <Source>
NIST2DMolFile

> <Tox>
245

> <CAS>
607-31-8

$$$$

  CDK

 10  9  0  0  0  0  0  0  0  0999 V2000
    3.4693   -1.3391    0.0000 C   0  0  0  0  0  0  0  0  0  0  0  0
    4.6488   -1.9844    0.0000 C   0  0  0  0  0  0  0  0  0  0  0  0
    2.3383   -1.9844    0.0000 O   0  0  0  0  0  0  0  0  0  0  0  0
    3.4693   -0.0000    0.0000 O   0  0  0  0  0  0  0  0  0  0  0  0
    5.7798   -1.3391    0.0000 C   0  0  0  0  0  0  0  0  0  0  0  0
    4.6488   -3.3236    0.0000 C   0  0  0  0  0  0  0  0  0  0  0  0
    1.1796   -1.3391    0.0000 C   0  0  0  0  0  0  0  0  0  0  0  0
    6.9385   -1.9844    0.0000 C   0  0  0  0  0  0  0  0  0  0  0  0
    5.7798   -0.0000    0.0000 O   0  0  0  0  0  0  0  0  0  0  0  0
    0.0000   -1.9983    0.0000 C   0  0  0  0  0  0  0  0  0  0  0  0
  1  2  1  0  0  0  0 
  1  3  1  0  0  0  0 
  1  4  2  0  0  0  0 
  2  5  1  0  0  0  0 
  2  6  1  0  0  0  0 
  3  7  1  0  0  0  0 
  5  8  1  0  0  0  0 
  5  9  2  0  0  0  0 
  7 10  1  0  0  0  0 
M  END
> <Name>
Butanoic acid, 2-methyl-3-oxo-, ethyl ester

> <Source>
DSSTox2DMolFile

> <Tox>
187

> <CAS>
609-14-3

$$$$

  CDK

 10 10  0  0  0  0  0  0  0  0999 V2000
    0.0000    1.4834    0.0000 C   0  0  0  0  0  0  0  0  0  0  0  0
    0.8696    1.9949    0.0000 C   0  0  0  0  0  0  0  0  0  0  0  0
    0.0000    0.5115    0.0000 C   0  0  0  0  0  0  0  0  0  0  0  0
    1.6880    1.4834    0.0000 C   0  0  0  0  0  0  0  0  0  0  0  0
    0.8696    3.0180    0.0000 C   0  0  0  0  0  0  0  0  0  0  0  0
    0.8696    0.0000    0.0000 C   0  0  0  0  0  0  0  0  0  0  0  0
    1.6880    0.5115    0.0000 C   0  0  0  0  0  0  0  0  0  0  0  0
    2.5576    1.9949    0.0000 N   0  0  0  0  0  0  0  0  0  0  0  0
    3.4783    1.4834    0.0000 C   0  0  0  0  0  0  0  0  0  0  0  0
    2.5576    3.0180    0.0000 C   0  0  0  0  0  0  0  0  0  0  0  0
  1  2  2  0  0  0  0 
  3  1  1  0  0  0  0 
  2  4  1  0  0  0  0 
  2  5  1  0  0  0  0 
  6  3  2  0  0  0  0 
  4  7  2  0  0  0  0 
  4  8  1  0  0  0  0 
  7  6  1  0  0  0  0 
  8  9  1  0  0  0  0 
  8 10  1  0  0  0  0 
M  END
> <Name>
N,N-DIMETHYL-O-TOLUIDINE

> <Source>
NIST2DMolFile

> <Tox>
194.1

> <CAS>
609-72-3

$$$$

  CDK

 14 14  0  0  0  0  0  0  0  0999 V2000
    0.0000    0.0000    0.0000 C   0  0  0  0  0  0  0  0  0  0  0  0
   -0.4200    1.1200    0.9600 C   0  0  0  0  0  0  0  0  0  0  0  0
    0.3800    2.2600    0.7200 O   0  0  0  0  0  0  0  0  0  0  0  0
   -0.1400    3.0800   -0.2000 C   0  0  0  0  0  0  0  0  0  0  0  0
   -1.1000    2.8000   -0.8800 O   0  0  0  0  0  0  0  0  0  0  0  0
    0.5400    4.3800   -0.3400 C   0  0  0  0  0  0  0  0  0  0  0  0
   -0.2000    5.5600   -0.5400 C   0  0  0  0  0  0  0  0  0  0  0  0
    1.9600    4.4600   -0.3000 C   0  0  0  0  0  0  0  0  0  0  0  0
   -1.6000    5.5200   -0.5800 N   0  0  0  0  0  0  0  0  0  0  0  0
    0.4400    6.8000   -0.6800 C   0  0  0  0  0  0  0  0  0  0  0  0
    2.6000    5.7000   -0.4600 C   0  0  0  0  0  0  0  0  0  0  0  0
   -2.1200    5.9800   -1.5600 O   0  0  0  0  0  0  0  0  0  0  0  0
   -2.1600    5.0200    0.4000 O   0  0  0  0  0  0  0  0  0  0  0  0
    1.8600    6.8600   -0.6400 C   0  0  0  0  0  0  0  0  0  0  0  0
  1  2  1  0  0  0  0 
  2  3  1  0  0  0  0 
  3  4  1  0  0  0  0 
  4  5  2  0  0  0  0 
  4  6  1  0  0  0  0 
  6  7  2  0  0  0  0 
  6  8  1  0  0  0  0 
  7  9  1  0  0  0  0 
  7 10  1  0  0  0  0 
 11  8  2  0  0  0  0 
  9 12  2  0  0  0  0 
  9 13  1  0  0  0  0 
 10 14  2  0  0  0  0 
 14 11  1  0  0  0  0 
M  CHG  1   9   1
M  CHG  1  13  -1
M  END
> <Name>
Ethyl 2-nitrobenzoate

> <Source>
NIH3DMolFile

> <Tox>
275

> <CAS>
610-34-4

$$$$

  CDK

 12 12  0  0  0  0  0  0  0  0999 V2000
    3.2974    2.6979    0.0000 O   0  0  0  0  0  0  0  0  0  0  0  0
    2.5980    1.9984    0.0000 N   0  0  0  0  0  0  0  0  0  0  0  0
    3.4973    1.4988    0.0000 O   0  0  0  0  0  0  0  0  0  0  0  0
    1.7486    1.4988    0.0000 C   0  0  0  0  0  0  0  0  0  0  0  0
    0.8993    1.9984    0.0000 C   0  0  0  0  0  0  0  0  0  0  0  0
    1.7486    0.4996    0.0000 C   0  0  0  0  0  0  0  0  0  0  0  0
    0.8993    2.9976    0.0000 O   0  0  0  0  0  0  0  0  0  0  0  0
    0.0000    1.4988    0.0000 C   0  0  0  0  0  0  0  0  0  0  0  0
    0.8993    0.0000    0.0000 C   0  0  0  0  0  0  0  0  0  0  0  0
    1.7486    3.4973    0.0000 C   0  0  0  0  0  0  0  0  0  0  0  0
    0.0000    0.4996    0.0000 C   0  0  0  0  0  0  0  0  0  0  0  0
    2.5980    2.9976    0.0000 C   0  0  0  0  0  0  0  0  0  0  0  0
  1  2  2  0  0  0  0 
  2  3  2  0  0  0  0 
  2  4  1  0  0  0  0 
  5  4  2  0  0  0  0 
  4  6  1  0  0  0  0 
  7  5  1  0  0  0  0 
  8  5  1  0  0  0  0 
  6  9  2  0  0  0  0 
 10  7  1  0  0  0  0 
 11  8  2  0  0  0  0 
  9 11  1  0  0  0  0 
 12 10  1  0  0  0  0 
M  END
> <Name>
Benzene, 1-ethoxy-2-nitro-

> <Source>
NIST2DMolFile

> <Tox>
267

> <CAS>
610-67-3

$$$$

  CDK

  9  9  0  0  0  0  0  0  0  0999 V2000
    0.9927    3.2383    1.3945 C   0  0  0  0  0  0  0  0  0  0  0  0
    2.0683    2.1738    1.3945 C   0  0  0  0  0  0  0  0  0  0  0  0
    3.4552    2.7367    1.3946 C   0  0  0  0  0  0  0  0  0  0  0  0
    4.4957    2.1232    2.1058 C   0  0  0  0  0  0  0  0  0  0  0  0
    3.7257    3.8847    0.6446 C   0  0  0  0  0  0  0  0  0  0  0  0
    4.2805    0.8924    2.9116 C   0  0  0  0  0  0  0  0  0  0  0  0
    5.7807    2.6714    2.0520 C   0  0  0  0  0  0  0  0  0  0  0  0
    5.0046    4.4192    0.5934 C   0  0  0  0  0  0  0  0  0  0  0  0
    6.0366    3.8096    1.3003 C   0  0  0  0  0  0  0  0  0  0  0  0
  1  2  1  0  0  0  0 
  2  3  1  0  0  0  0 
  4  3  2  0  0  0  0 
  3  5  1  0  0  0  0 
  4  6  1  0  0  0  0 
  7  4  1  0  0  0  0 
  5  8  2  0  0  0  0 
  9  7  2  0  0  0  0 
  8  9  1  0  0  0  0 
M  END
> <Name>
1-ETHYL-2-METHYLBENZENE

> <Source>
NIST3DMolFile

> <Tox>
165.2

> <CAS>
611-14-3

$$$$

  CDK

  9  9  0  0  0  0  0  0  0  0999 V2000
    1.0164    3.0365    0.5589 C   0  0  0  0  0  0  0  0  0  0  0  0
    2.0659    3.7598    0.9384 C   0  0  0  0  0  0  0  0  0  0  0  0
    3.4591    3.3144    0.8572 C   0  0  0  0  0  0  0  0  0  0  0  0
    3.9025    2.0164    1.1463 C   0  0  0  0  0  0  0  0  0  0  0  0
    4.3934    4.2789    0.4597 C   0  0  0  0  0  0  0  0  0  0  0  0
    2.9721    0.9493    1.6001 C   0  0  0  0  0  0  0  0  0  0  0  0
    5.2623    1.7142    1.0212 C   0  0  0  0  0  0  0  0  0  0  0  0
    5.7373    3.9677    0.3235 C   0  0  0  0  0  0  0  0  0  0  0  0
    6.1739    2.6767    0.6083 C   0  0  0  0  0  0  0  0  0  0  0  0
  1  2  2  0  0  0  0 
  2  3  1  0  0  0  0 
  4  3  2  0  0  0  0 
  3  5  1  0  0  0  0 
  4  6  1  0  0  0  0 
  7  4  1  0  0  0  0 
  5  8  2  0  0  0  0 
  9  7  2  0  0  0  0 
  8  9  1  0  0  0  0 
M  END
> <Name>
O-METHYLSTYRENE

> <Source>
NIST3DMolFile

> <Tox>
169.8

> <CAS>
611-15-4

$$$$

  CDK

 11 12  0  0  0  0  0  0  0  0999 V2000
    0.8650    1.9844    0.0000 C   0  0  0  0  0  0  0  0  0  0  0  0
    0.0000    1.4756    0.0000 C   0  0  0  0  0  0  0  0  0  0  0  0
    1.7300    1.4756    0.0000 C   0  0  0  0  0  0  0  0  0  0  0  0
    0.0000    0.4579    0.0000 C   0  0  0  0  0  0  0  0  0  0  0  0
    1.7300    0.4579    0.0000 C   0  0  0  0  0  0  0  0  0  0  0  0
    2.5950    1.9844    0.0000 C   0  0  0  0  0  0  0  0  0  0  0  0
    0.8650    0.0000    0.0000 C   0  0  0  0  0  0  0  0  0  0  0  0
    2.5950    0.0000    0.0000 N   0  0  0  0  0  0  0  0  0  0  0  0
    3.4601    1.4756    0.0000 C   0  0  0  0  0  0  0  0  0  0  0  0
    2.5950    3.0021    0.0000 Cl  0  0  0  0  0  0  0  0  0  0  0  0
    3.4601    0.4579    0.0000 C   0  0  0  0  0  0  0  0  0  0  0  0
  2  1  2  0  0  0  0 
  1  3  1  0  0  0  0 
  4  2  1  0  0  0  0 
  5  3  2  0  0  0  0 
  3  6  1  0  0  0  0 
  7  4  2  0  0  0  0 
  5  7  1  0  0  0  0 
  8  5  1  0  0  0  0 
  6  9  2  0  0  0  0 
  6 10  1  0  0  0  0 
 11  8  2  0  0  0  0 
  9 11  1  0  0  0  0 
M  END
> <Name>
4-Chloroquinoline

> <Source>
NIST2DMolFile

> <Tox>
262

> <CAS>
611-35-8

$$$$

  CDK

 17 19  0  0  0  0  0  0  0  0999 V2000
   -0.3811   -0.8631   -0.6892 C   0  0  0  0  0  0  0  0  0  0  0  0
    0.8426   -0.4834   -1.4649 C   0  0  0  0  0  0  0  0  0  0  0  0
   -1.3618    0.0787   -0.3376 C   0  0  0  0  0  0  0  0  0  0  0  0
   -0.5160   -2.2025   -0.3222 C   0  0  0  0  0  0  0  0  0  0  0  0
    2.0107   -0.0723   -0.5956 C   0  0  0  0  0  0  0  0  0  0  0  0
   -2.4955   -0.3441    0.3964 C   0  0  0  0  0  0  0  0  0  0  0  0
   -1.2424    1.4307   -0.6984 C   0  0  0  0  0  0  0  0  0  0  0  0
   -1.6311   -2.6183    0.3993 C   0  0  0  0  0  0  0  0  0  0  0  0
    2.9105   -1.0354   -0.1726 C   0  0  0  0  0  0  0  0  0  0  0  0
    2.1551    1.2584   -0.2423 C   0  0  0  0  0  0  0  0  0  0  0  0
   -2.6153   -1.6962    0.7570 C   0  0  0  0  0  0  0  0  0  0  0  0
   -3.4764    0.5974    0.7478 C   0  0  0  0  0  0  0  0  0  0  0  0
   -2.2264    2.3526   -0.3405 C   0  0  0  0  0  0  0  0  0  0  0  0
    3.9876   -0.6565    0.6285 C   0  0  0  0  0  0  0  0  0  0  0  0
    3.2323    1.6373    0.5587 C   0  0  0  0  0  0  0  0  0  0  0  0
   -3.3414    1.9368    0.3813 C   0  0  0  0  0  0  0  0  0  0  0  0
    4.1485    0.6798    0.9941 C   0  0  0  0  0  0  0  0  0  0  0  0
  1  2  1  0  0  0  0 
  1  3  1  0  0  0  0 
  1  4  2  0  0  0  0 
  2  5  1  0  0  0  0 
  3  6  1  0  0  0  0 
  3  7  2  0  0  0  0 
  4  8  1  0  0  0  0 
  5  9  2  0  0  0  0 
  5 10  1  0  0  0  0 
  6 11  1  0  0  0  0 
  6 12  2  0  0  0  0 
  7 13  1  0  0  0  0 
 11  8  2  0  0  0  0 
  9 14  1  0  0  0  0 
 10 15  2  0  0  0  0 
 12 16  1  0  0  0  0 
 13 16  2  0  0  0  0 
 14 17  2  0  0  0  0 
 15 17  1  0  0  0  0 
M  END
> <Name>
NAPHTHALENE, 1-(PHENYLMETHYL)-

> <Source>
Chemidplus3DMolFile

> <Tox>
350

> <CAS>
611-45-0

$$$$

  CDK

 16 17  0  0  0  0  0  0  0  0999 V2000
    0.0244   -2.5377   -0.0004 O   0  0  0  0  0  0  0  0  0  0  0  0
    0.0308   -1.2977   -0.0001 C   0  0  0  0  0  0  0  0  0  0  0  0
    1.2907   -0.5712   -0.0002 C   0  0  0  0  0  0  0  0  0  0  0  0
   -1.2931   -0.6051   -0.0001 C   0  0  0  0  0  0  0  0  0  0  0  0
    1.2916    0.8235   -0.0004 C   0  0  0  0  0  0  0  0  0  0  0  0
    2.4983   -1.2695    0.0002 C   0  0  0  0  0  0  0  0  0  0  0  0
   -1.8758   -0.3003   -1.2080 C   0  0  0  0  0  0  0  0  0  0  0  0
   -1.8758   -0.3005    1.2079 C   0  0  0  0  0  0  0  0  0  0  0  0
    2.5000    1.5202   -0.0002 C   0  0  0  0  0  0  0  0  0  0  0  0
    3.7068   -0.5728    0.0005 C   0  0  0  0  0  0  0  0  0  0  0  0
   -3.1119    0.3461   -1.2079 C   0  0  0  0  0  0  0  0  0  0  0  0
   -3.1119    0.3458    1.2082 C   0  0  0  0  0  0  0  0  0  0  0  0
    3.7076    0.8221    0.0004 C   0  0  0  0  0  0  0  0  0  0  0  0
   -3.7300    0.6690    0.0002 C   0  0  0  0  0  0  0  0  0  0  0  0
    4.9997    1.5673   -0.0002 C   0  0  0  0  0  0  0  0  0  0  0  0
   -5.0514    1.3609    0.0001 C   0  0  0  0  0  0  0  0  0  0  0  0
  1  2  2  0  0  0  0 
  3  2  1  0  0  0  0 
  4  2  1  0  0  0  0 
  3  5  2  0  0  0  0 
  3  6  1  0  0  0  0 
  4  7  2  0  0  0  0 
  4  8  1  0  0  0  0 
  5  9  1  0  0  0  0 
  6 10  2  0  0  0  0 
  7 11  1  0  0  0  0 
  8 12  2  0  0  0  0 
 13  9  2  0  0  0  0 
 13 10  1  0  0  0  0 
 14 11  2  0  0  0  0 
 14 12  1  0  0  0  0 
 13 15  1  0  0  0  0 
 14 16  1  0  0  0  0 
M  END
> <Name>
Methanone, bis(4-methylphenyl)-

> <Source>
Chemidplus3DMolFile

> <Tox>
334

> <CAS>
611-97-2

$$$$

  CDK

 10 10  0  0  0  0  0  0  0  0999 V2000
    1.7863    3.4734    0.0000 Cl  0  0  0  0  0  0  0  0  0  0  0  0
    0.8931    2.9772    0.0000 C   0  0  0  0  0  0  0  0  0  0  0  0
    0.8931    1.9848    0.0000 C   0  0  0  0  0  0  0  0  0  0  0  0
    1.7367    1.4886    0.0000 C   0  0  0  0  0  0  0  0  0  0  0  0
    0.0000    1.4886    0.0000 C   0  0  0  0  0  0  0  0  0  0  0  0
    2.5802    1.9848    0.0000 C   0  0  0  0  0  0  0  0  0  0  0  0
    1.7367    0.4962    0.0000 C   0  0  0  0  0  0  0  0  0  0  0  0
    0.0000    0.4962    0.0000 C   0  0  0  0  0  0  0  0  0  0  0  0
    3.4734    1.4886    0.0000 Cl  0  0  0  0  0  0  0  0  0  0  0  0
    0.8931    0.0000    0.0000 C   0  0  0  0  0  0  0  0  0  0  0  0
  1  2  1  0  0  0  0 
  2  3  1  0  0  0  0 
  3  4  2  0  0  0  0 
  5  3  1  0  0  0  0 
  4  6  1  0  0  0  0 
  4  7  1  0  0  0  0 
  8  5  2  0  0  0  0 
  6  9  1  0  0  0  0 
  7 10  2  0  0  0  0 
 10  8  1  0  0  0  0 
M  END
> <Name>
Benzene, 1,2-bis(chloromethyl)-

> <Source>
NIST2DMolFile

> <Tox>
239.5

> <CAS>
612-12-4

$$$$

  CDK

 10 11  0  0  0  0  0  0  0  0999 V2000
    0.9478    1.7879    0.8809 C   0  0  0  0  0  0  0  0  0  0  0  0
    0.9477    3.1805    0.8809 C   0  0  0  0  0  0  0  0  0  0  0  0
    2.1499    1.0958    0.8809 C   0  0  0  0  0  0  0  0  0  0  0  0
    2.1502    3.8723    0.8809 C   0  0  0  0  0  0  0  0  0  0  0  0
    3.3665    1.7856    0.8809 C   0  0  0  0  0  0  0  0  0  0  0  0
    3.3665    3.1822    0.8809 C   0  0  0  0  0  0  0  0  0  0  0  0
    4.6336    0.9973    0.8813 C   0  0  0  0  0  0  0  0  0  0  0  0
    4.6338    3.9703    0.8814 C   0  0  0  0  0  0  0  0  0  0  0  0
    5.8696    1.8177    0.8716 C   0  0  0  0  0  0  0  0  0  0  0  0
    5.8698    3.1496    0.8715 C   0  0  0  0  0  0  0  0  0  0  0  0
  1  2  2  0  0  0  0 
  3  1  1  0  0  0  0 
  2  4  1  0  0  0  0 
  5  3  2  0  0  0  0 
  4  6  2  0  0  0  0 
  5  6  1  0  0  0  0 
  7  5  1  0  0  0  0 
  6  8  1  0  0  0  0 
  9  7  1  0  0  0  0 
  8 10  1  0  0  0  0 
 10  9  2  0  0  0  0 
M  END
> <Name>
Naphthalene, 1,4-dihydro-

> <Source>
NIST3DMolFile

> <Tox>
211.5

> <CAS>
612-17-9

$$$$

  CDK

 11 12  0  0  0  0  0  0  0  0999 V2000
    1.8451    2.1580   -0.2637 Cl  0  0  0  0  0  0  0  0  0  0  0  0
    0.1428    2.0872   -0.4955 C   0  0  0  0  0  0  0  0  0  0  0  0
   -0.5598    3.2256   -0.8800 C   0  0  0  0  0  0  0  0  0  0  0  0
   -0.5402    0.8932   -0.3002 C   0  0  0  0  0  0  0  0  0  0  0  0
   -1.9510    3.1720   -1.0705 C   0  0  0  0  0  0  0  0  0  0  0  0
   -1.9234    0.8402   -0.4896 C   0  0  0  0  0  0  0  0  0  0  0  0
   -2.6509    1.9631   -0.8740 C   0  0  0  0  0  0  0  0  0  0  0  0
   -2.6829    4.3027   -1.4574 C   0  0  0  0  0  0  0  0  0  0  0  0
   -3.9834    1.8773   -1.0478 N   0  0  0  0  0  0  0  0  0  0  0  0
   -4.0560    4.2174   -1.6373 C   0  0  0  0  0  0  0  0  0  0  0  0
   -4.6528    2.9918   -1.4215 C   0  0  0  0  0  0  0  0  0  0  0  0
  1  2  1  0  0  0  0 
  3  2  2  0  0  0  0 
  2  4  1  0  0  0  0 
  5  3  1  0  0  0  0 
  6  4  2  0  0  0  0 
  5  7  2  0  0  0  0 
  5  8  1  0  0  0  0 
  7  6  1  0  0  0  0 
  9  7  1  0  0  0  0 
  8 10  2  0  0  0  0 
  9 11  2  0  0  0  0 
 10 11  1  0  0  0  0 
M  END
> <Name>
6-CHLOROQUINOLINE

> <Source>
Chemidplus3DMolFile

> <Tox>
263

> <CAS>
612-57-7

$$$$

  CDK

 11 12  0  0  0  0  0  0  0  0999 V2000
    3.4609    1.5047    0.0000 C   0  0  0  0  0  0  0  0  0  0  0  0
    4.3136    2.0063    0.0000 C   0  0  0  0  0  0  0  0  0  0  0  0
    2.6082    2.0063    0.0000 C   0  0  0  0  0  0  0  0  0  0  0  0
    3.4609    0.5016    0.0000 C   0  0  0  0  0  0  0  0  0  0  0  0
    1.7054    1.5047    0.0000 C   0  0  0  0  0  0  0  0  0  0  0  0
    2.6082    0.0000    0.0000 N   0  0  0  0  0  0  0  0  0  0  0  0
    1.7054    0.5016    0.0000 C   0  0  0  0  0  0  0  0  0  0  0  0
    0.8527    2.0063    0.0000 C   0  0  0  0  0  0  0  0  0  0  0  0
    0.8527    0.0000    0.0000 C   0  0  0  0  0  0  0  0  0  0  0  0
    0.0000    1.5047    0.0000 C   0  0  0  0  0  0  0  0  0  0  0  0
    0.0000    0.5016    0.0000 C   0  0  0  0  0  0  0  0  0  0  0  0
  1  2  1  0  0  0  0 
  3  1  2  0  0  0  0 
  1  4  1  0  0  0  0 
  5  3  1  0  0  0  0 
  4  6  2  0  0  0  0 
  5  7  2  0  0  0  0 
  8  5  1  0  0  0  0 
  6  7  1  0  0  0  0 
  7  9  1  0  0  0  0 
 10  8  2  0  0  0  0 
  9 11  2  0  0  0  0 
 11 10  1  0  0  0  0 
M  END
> <Name>
3-METHYLQUINOLINE

> <Source>
NIST2DMolFile

> <Tox>
259.8

> <CAS>
612-58-8

$$$$

  CDK

 11 12  0  0  0  0  0  0  0  0999 V2000
    0.0000    1.5047    0.0000 C   0  0  0  0  0  0  0  0  0  0  0  0
    0.0000    0.5016    0.0000 C   0  0  0  0  0  0  0  0  0  0  0  0
    0.8527    2.0063    0.0000 C   0  0  0  0  0  0  0  0  0  0  0  0
    0.8527    0.0000    0.0000 C   0  0  0  0  0  0  0  0  0  0  0  0
    1.7054    1.5047    0.0000 C   0  0  0  0  0  0  0  0  0  0  0  0
    1.7054    0.5016    0.0000 C   0  0  0  0  0  0  0  0  0  0  0  0
    2.6082    2.0063    0.0000 N   0  0  0  0  0  0  0  0  0  0  0  0
    2.6082    0.0000    0.0000 C   0  0  0  0  0  0  0  0  0  0  0  0
    3.4609    1.5047    0.0000 C   0  0  0  0  0  0  0  0  0  0  0  0
    3.4609    0.5016    0.0000 C   0  0  0  0  0  0  0  0  0  0  0  0
    4.3136    2.0063    0.0000 Cl  0  0  0  0  0  0  0  0  0  0  0  0
  2  1  2  0  0  0  0 
  1  3  1  0  0  0  0 
  4  2  1  0  0  0  0 
  3  5  2  0  0  0  0 
  6  4  2  0  0  0  0 
  6  5  1  0  0  0  0 
  5  7  1  0  0  0  0 
  8  6  1  0  0  0  0 
  7  9  2  0  0  0  0 
 10  8  2  0  0  0  0 
  9 10  1  0  0  0  0 
  9 11  1  0  0  0  0 
M  END
> <Name>
2-CHLOROQUINOLINE

> <Source>
NIST2DMolFile

> <Tox>
266

> <CAS>
612-62-4

$$$$

  CDK

 20 23  0  0  0  0  0  0  0  0999 V2000
   -0.7221   -0.5919    0.0412 C   0  0  0  0  0  0  0  0  0  0  0  0
    0.7222   -0.5919   -0.0412 C   0  0  0  0  0  0  0  0  0  0  0  0
   -1.4362    0.5754   -0.2315 C   0  0  0  0  0  0  0  0  0  0  0  0
   -1.3985   -1.7564    0.3924 C   0  0  0  0  0  0  0  0  0  0  0  0
    1.4361    0.5754    0.2315 C   0  0  0  0  0  0  0  0  0  0  0  0
    1.3986   -1.7564   -0.3924 C   0  0  0  0  0  0  0  0  0  0  0  0
   -2.8385    0.5922   -0.1554 C   0  0  0  0  0  0  0  0  0  0  0  0
   -2.7915   -1.7579    0.4727 C   0  0  0  0  0  0  0  0  0  0  0  0
    2.8385    0.5922    0.1554 C   0  0  0  0  0  0  0  0  0  0  0  0
    2.7915   -1.7580   -0.4727 C   0  0  0  0  0  0  0  0  0  0  0  0
   -3.5262   -0.5919    0.2021 C   0  0  0  0  0  0  0  0  0  0  0  0
   -3.5733    1.7579   -0.4263 C   0  0  0  0  0  0  0  0  0  0  0  0
    3.5262   -0.5919   -0.2021 C   0  0  0  0  0  0  0  0  0  0  0  0
    3.5733    1.7579    0.4264 C   0  0  0  0  0  0  0  0  0  0  0  0
   -4.9284   -0.5755    0.2780 C   0  0  0  0  0  0  0  0  0  0  0  0
   -4.9661    1.7563   -0.3458 C   0  0  0  0  0  0  0  0  0  0  0  0
    4.9285   -0.5754   -0.2780 C   0  0  0  0  0  0  0  0  0  0  0  0
    4.9661    1.7563    0.3457 C   0  0  0  0  0  0  0  0  0  0  0  0
   -5.6425    0.5918    0.0058 C   0  0  0  0  0  0  0  0  0  0  0  0
    5.6424    0.5918   -0.0059 C   0  0  0  0  0  0  0  0  0  0  0  0
  1  2  1  0  0  0  0 
  1  3  2  0  0  0  0 
  1  4  1  0  0  0  0 
  2  5  2  0  0  0  0 
  2  6  1  0  0  0  0 
  7  3  1  0  0  0  0 
  4  8  2  0  0  0  0 
  9  5  1  0  0  0  0 
  6 10  2  0  0  0  0 
  7 11  1  0  0  0  0 
  7 12  2  0  0  0  0 
 11  8  1  0  0  0  0 
  9 13  1  0  0  0  0 
  9 14  2  0  0  0  0 
 13 10  1  0  0  0  0 
 11 15  2  0  0  0  0 
 12 16  1  0  0  0  0 
 13 17  2  0  0  0  0 
 14 18  1  0  0  0  0 
 15 19  1  0  0  0  0 
 16 19  2  0  0  0  0 
 17 20  1  0  0  0  0 
 18 20  2  0  0  0  0 
M  END
> <Name>
2,2'-BINAPHTHALENE

> <Source>
Chemidplus3DMolFile

> <Tox>
452

> <CAS>
612-78-2

$$$$

  CDK

 12 13  0  0  0  0  0  0  0  0999 V2000
    5.1705    2.5100    0.0000 N   0  0  0  0  0  0  0  0  0  0  0  0
    4.3171    2.0080    0.0000 C   0  0  0  0  0  0  0  0  0  0  0  0
    3.4638    1.5060    0.0000 C   0  0  0  0  0  0  0  0  0  0  0  0
    2.6104    2.0080    0.0000 C   0  0  0  0  0  0  0  0  0  0  0  0
    3.4638    0.5020    0.0000 C   0  0  0  0  0  0  0  0  0  0  0  0
    1.7570    1.5060    0.0000 C   0  0  0  0  0  0  0  0  0  0  0  0
    2.6104    0.0000    0.0000 C   0  0  0  0  0  0  0  0  0  0  0  0
    1.7570    0.5020    0.0000 C   0  0  0  0  0  0  0  0  0  0  0  0
    0.8534    2.0080    0.0000 C   0  0  0  0  0  0  0  0  0  0  0  0
    0.8534    0.0000    0.0000 C   0  0  0  0  0  0  0  0  0  0  0  0
    0.0000    1.5060    0.0000 C   0  0  0  0  0  0  0  0  0  0  0  0
    0.0000    0.5020    0.0000 C   0  0  0  0  0  0  0  0  0  0  0  0
  1  2  3  0  0  0  0 
  2  3  1  0  0  0  0 
  4  3  2  0  0  0  0 
  3  5  1  0  0  0  0 
  6  4  1  0  0  0  0 
  5  7  2  0  0  0  0 
  6  8  2  0  0  0  0 
  9  6  1  0  0  0  0 
  7  8  1  0  0  0  0 
  8 10  1  0  0  0  0 
 11  9  2  0  0  0  0 
 10 12  2  0  0  0  0 
 12 11  1  0  0  0  0 
M  END
> <Name>
2-Naphthalenecarbonitrile

> <Source>
NIST2DMolFile

> <Tox>
306.5

> <CAS>
613-46-7

$$$$

  CDK

 14 14  0  0  0  0  0  0  0  0999 V2000
    1.7210   -0.9310    1.0927 O   0  0  0  0  0  0  0  0  0  0  0  0
    0.9416   -0.6678    0.0330 C   0  0  0  0  0  0  0  0  0  0  0  0
    2.8662   -1.4439    0.5710 C   0  0  0  0  0  0  0  0  0  0  0  0
   -0.4070   -0.0804    0.3703 C   0  0  0  0  0  0  0  0  0  0  0  0
    1.5182   -0.9814   -1.1450 C   0  0  0  0  0  0  0  0  0  0  0  0
    2.7914   -1.4954   -0.8014 C   0  0  0  0  0  0  0  0  0  0  0  0
   -1.3900   -1.0243   -0.1026 O   0  0  0  0  0  0  0  0  0  0  0  0
   -0.5171    1.1895   -0.3061 O   0  0  0  0  0  0  0  0  0  0  0  0
   -2.6960   -0.6898    0.1013 C   0  0  0  0  0  0  0  0  0  0  0  0
    0.4055    2.1461   -0.0007 C   0  0  0  0  0  0  0  0  0  0  0  0
   -3.1101    0.3263    0.6426 O   0  0  0  0  0  0  0  0  0  0  0  0
   -3.5795   -1.7695   -0.4455 C   0  0  0  0  0  0  0  0  0  0  0  0
    1.3284    2.0419    0.7954 O   0  0  0  0  0  0  0  0  0  0  0  0
    0.1274    3.3797   -0.8049 C   0  0  0  0  0  0  0  0  0  0  0  0
  1  2  1  0  0  0  0 
  1  3  1  0  0  0  0 
  4  2  1  0  0  0  0 
  2  5  2  0  0  0  0 
  6  3  2  0  0  0  0 
  7  4  1  0  0  0  0 
  8  4  1  0  0  0  0 
  5  6  1  0  0  0  0 
  7  9  1  0  0  0  0 
  8 10  1  0  0  0  0 
 11  9  2  0  0  0  0 
  9 12  1  0  0  0  0 
 13 10  2  0  0  0  0 
 10 14  1  0  0  0  0 
M  END
> <Name>
Methanediol, 2-furanyl-, diacetate

> <Source>
Chemidplus3DMolFile

> <Tox>
220

> <CAS>
613-75-2

$$$$

  CDK

 10 10  0  0  0  0  0  0  0  0999 V2000
    0.0000    0.8148    0.0000 C   0  0  0  0  0  0  0  0  0  0  0  0
    0.5092    1.7314    0.0000 C   0  0  0  0  0  0  0  0  0  0  0  0
    0.5092    0.0000    0.0000 C   0  0  0  0  0  0  0  0  0  0  0  0
    1.4767    1.7314    0.0000 C   0  0  0  0  0  0  0  0  0  0  0  0
    1.4767    0.0000    0.0000 C   0  0  0  0  0  0  0  0  0  0  0  0
    1.9860    0.8148    0.0000 C   0  0  0  0  0  0  0  0  0  0  0  0
    3.0044    0.8148    0.0000 N   0  0  0  0  0  0  0  0  0  0  0  0
    3.5136    0.0000    0.0000 C   0  0  0  0  0  0  0  0  0  0  0  0
    3.5136    1.7314    0.0000 C   0  0  0  0  0  0  0  0  0  0  0  0
    4.5321    1.7314    0.0000 C   0  0  0  0  0  0  0  0  0  0  0  0
  1  2  2  0  0  0  0 
  3  1  1  0  0  0  0 
  2  4  1  0  0  0  0 
  5  3  2  0  0  0  0 
  4  6  2  0  0  0  0 
  6  5  1  0  0  0  0 
  6  7  1  0  0  0  0 
  7  8  1  0  0  0  0 
  7  9  1  0  0  0  0 
  9 10  1  0  0  0  0 
M  END
> <Name>
Benzenamine, N-ethyl-N-methyl-

> <Source>
NIST2DMolFile

> <Tox>
204

> <CAS>
613-97-8

$$$$

  CDK

 10 10  0  0  0  0  0  0  0  0999 V2000
    0.0771    0.0220    0.0000 C   0  0  0  0  0  0  0  0  0  0  0  0
   -0.9865    0.9433    0.0003 C   0  0  0  0  0  0  0  0  0  0  0  0
   -0.1745   -1.3564   -0.0002 C   0  0  0  0  0  0  0  0  0  0  0  0
    1.4031    0.5349   -0.0003 N   0  0  0  0  0  0  0  0  0  0  0  0
   -2.2926    0.4502    0.0003 C   0  0  0  0  0  0  0  0  0  0  0  0
   -0.7558    2.4112   -0.0002 C   0  0  0  0  0  0  0  0  0  0  0  0
   -1.4837   -1.8190   -0.0001 C   0  0  0  0  0  0  0  0  0  0  0  0
    2.5057   -0.0762    0.0001 C   0  0  0  0  0  0  0  0  0  0  0  0
   -2.5418   -0.9171    0.0000 C   0  0  0  0  0  0  0  0  0  0  0  0
    3.6324   -0.4205    0.0002 O   0  0  0  0  0  0  0  0  0  0  0  0
  1  2  1  0  0  0  0 
  1  3  2  0  0  0  0 
  1  4  1  0  0  0  0 
  2  5  2  0  0  0  0 
  2  6  1  0  0  0  0 
  7  3  1  0  0  0  0 
  4  8  2  0  0  0  0 
  5  9  1  0  0  0  0 
  9  7  2  0  0  0  0 
  8 10  2  0  0  0  0 
M  END
> <Name>
Benzene, 1-isocyanato-2-methyl-

> <Source>
DougDB3DMolFile

> <Tox>
185

> <CAS>
614-68-6

$$$$

  CDK

 10 11  0  0  0  0  0  0  0  0999 V2000
    0.0000    1.3753    0.0000 C   0  0  0  0  0  0  0  0  0  0  0  0
    0.0000    0.4584    0.0000 C   0  0  0  0  0  0  0  0  0  0  0  0
    0.8659    1.8338    0.0000 C   0  0  0  0  0  0  0  0  0  0  0  0
    0.8659    0.0000    0.0000 C   0  0  0  0  0  0  0  0  0  0  0  0
    1.6809    1.3753    0.0000 C   0  0  0  0  0  0  0  0  0  0  0  0
    1.6809    0.4584    0.0000 C   0  0  0  0  0  0  0  0  0  0  0  0
    2.4450    1.8847    0.0000 O   0  0  0  0  0  0  0  0  0  0  0  0
    3.2600    0.4584    0.0000 N   0  0  0  0  0  0  0  0  0  0  0  0
    3.2600    1.3753    0.0000 C   0  0  0  0  0  0  0  0  0  0  0  0
    4.0750    1.8847    0.0000 Cl  0  0  0  0  0  0  0  0  0  0  0  0
  2  1  2  0  0  0  0 
  1  3  1  0  0  0  0 
  4  2  1  0  0  0  0 
  3  5  2  0  0  0  0 
  6  4  2  0  0  0  0 
  6  5  1  0  0  0  0 
  5  7  1  0  0  0  0 
  8  6  1  0  0  0  0 
  7  9  1  0  0  0  0 
  9  8  2  0  0  0  0 
  9 10  1  0  0  0  0 
M  END
> <Name>
Benzoxazole, 2-chloro-

> <Source>
NIST2DMolFile

> <Tox>
201.5

> <CAS>
615-18-9

$$$$

  CDK

  8  8  0  0  0  0  0  0  0  0999 V2000
    0.0000    1.7462    0.0000 Br  0  0  0  0  0  0  0  0  0  0  0  0
    0.9978    1.7462    0.0000 C   0  0  0  0  0  0  0  0  0  0  0  0
    1.4967    0.8481    0.0000 C   0  0  0  0  0  0  0  0  0  0  0  0
    1.4967    2.5943    0.0000 C   0  0  0  0  0  0  0  0  0  0  0  0
    0.9978    0.0000    0.0000 N   0  0  0  0  0  0  0  0  0  0  0  0
    2.4945    0.8481    0.0000 C   0  0  0  0  0  0  0  0  0  0  0  0
    2.4945    2.5943    0.0000 C   0  0  0  0  0  0  0  0  0  0  0  0
    2.9934    1.7462    0.0000 C   0  0  0  0  0  0  0  0  0  0  0  0
  1  2  1  0  0  0  0 
  2  3  2  0  0  0  0 
  4  2  1  0  0  0  0 
  3  5  1  0  0  0  0 
  3  6  1  0  0  0  0 
  7  4  2  0  0  0  0 
  6  8  2  0  0  0  0 
  8  7  1  0  0  0  0 
M  END
> <Name>
O-BROMOANILINE

> <Source>
NIST2DMolFile

> <Tox>
229

> <CAS>
615-36-1

$$$$

  CDK

  9  9  0  0  0  0  0  0  0  0999 V2000
    1.7493    2.9988    0.0000 Cl  0  0  0  0  0  0  0  0  0  0  0  0
    1.7493    1.9992    0.0000 C   0  0  0  0  0  0  0  0  0  0  0  0
    0.8996    1.4994    0.0000 C   0  0  0  0  0  0  0  0  0  0  0  0
    2.5989    1.4994    0.0000 C   0  0  0  0  0  0  0  0  0  0  0  0
    0.0000    1.9992    0.0000 O   0  0  0  0  0  0  0  0  0  0  0  0
    0.8996    0.4998    0.0000 C   0  0  0  0  0  0  0  0  0  0  0  0
    2.5989    0.4998    0.0000 C   0  0  0  0  0  0  0  0  0  0  0  0
    1.7493    0.0000    0.0000 C   0  0  0  0  0  0  0  0  0  0  0  0
    3.4985    0.0000    0.0000 O   0  0  0  0  0  0  0  0  0  0  0  0
  1  2  1  0  0  0  0 
  3  2  2  0  0  0  0 
  2  4  1  0  0  0  0 
  3  5  1  0  0  0  0 
  6  3  1  0  0  0  0 
  4  7  2  0  0  0  0 
  8  6  2  0  0  0  0 
  7  8  1  0  0  0  0 
  7  9  1  0  0  0  0 
M  END
> <Name>
CHLOROHYDROQUINONE

> <Source>
NIST2DMolFile

> <Tox>
263

> <CAS>
615-67-8

$$$$

  CDK

 11 10  0  0  0  0  0  0  0  0999 V2000
    0.0000    0.0000    0.0000 C   0  0  0  0  0  0  0  0  0  0  0  0
   -1.3000    0.0600    0.6000 O   0  0  0  0  0  0  0  0  0  0  0  0
    0.8600   -0.9800    0.7600 C   0  0  0  0  0  0  0  0  0  0  0  0
   -2.1400   -0.8000    0.0400 C   0  0  0  0  0  0  0  0  0  0  0  0
   -3.5400   -0.6800    0.4600 C   0  0  0  0  0  0  0  0  0  0  0  0
   -1.8200   -1.6600   -0.7600 O   0  0  0  0  0  0  0  0  0  0  0  0
   -4.3800   -1.4600    0.0600 O   0  0  0  0  0  0  0  0  0  0  0  0
   -3.9200    0.4400    1.4000 C   0  0  0  0  0  0  0  0  0  0  0  0
   -3.8200   -0.0200    2.8400 C   0  0  0  0  0  0  0  0  0  0  0  0
   -3.1000   -1.3200    3.1000 C   0  0  0  0  0  0  0  0  0  0  0  0
   -4.3000    0.6200    3.7400 O   0  0  0  0  0  0  0  0  0  0  0  0
  1  2  1  0  0  0  0 
  1  3  1  0  0  0  0 
  2  4  1  0  0  0  0 
  4  5  1  0  0  0  0 
  4  6  2  0  0  0  0 
  5  7  2  0  0  0  0 
  5  8  1  0  0  0  0 
  8  9  1  0  0  0  0 
  9 10  1  0  0  0  0 
  9 11  2  0  0  0  0 
M  END
> <Name>
2,4-Dioxo-pentanoic acid ethyl ester

> <Source>
NIH3DMolFile

> <Tox>
214

> <CAS>
615-79-2

$$$$

  CDK

 10  9  0  0  0  0  0  0  0  0999 V2000
   -0.7705   -2.3928   -1.1099 S   0  0  0  0  0  0  0  0  0  0  0  0
   -0.7609   -0.9440   -0.3047 C   0  0  0  0  0  0  0  0  0  0  0  0
   -1.8094   -0.1286   -0.3960 O   0  0  0  0  0  0  0  0  0  0  0  0
    0.4462   -0.5514    0.4800 C   0  0  0  0  0  0  0  0  0  0  0  0
   -1.8101    1.1519    0.2573 C   0  0  0  0  0  0  0  0  0  0  0  0
    0.5632   -0.9268    2.0865 S   0  0  0  0  0  0  0  0  0  0  0  0
    1.3285    0.0990   -0.2999 O   0  0  0  0  0  0  0  0  0  0  0  0
   -3.1186    1.8544   -0.0358 C   0  0  0  0  0  0  0  0  0  0  0  0
    2.5797    0.5848    0.2200 C   0  0  0  0  0  0  0  0  0  0  0  0
    3.3518    1.2534   -0.8974 C   0  0  0  0  0  0  0  0  0  0  0  0
  1  2  2  0  0  0  0 
  3  2  1  0  0  0  0 
  2  4  1  0  0  0  0 
  3  5  1  0  0  0  0 
  6  4  2  0  0  0  0 
  7  4  1  0  0  0  0 
  5  8  1  0  0  0  0 
  7  9  1  0  0  0  0 
  9 10  1  0  0  0  0 
M  END
> <Name>
Dithiooxalic acid di-O-ethyl ester

> <Source>
Chemidplus3DMolFile

> <Tox>
235

> <CAS>
615-85-0

$$$$

  CDK

 12 11  0  0  0  0  0  0  0  0999 V2000
    0.8659    1.0000    0.0000 C   0  0  0  0  0  0  0  0  0  0  0  0
    1.7320    1.5000    0.0000 C   0  0  0  0  0  0  0  0  0  0  0  0
    0.0000    1.5000    0.0000 C   0  0  0  0  0  0  0  0  0  0  0  0
    2.5981    1.0000    0.0000 O   0  0  0  0  0  0  0  0  0  0  0  0
    3.4640    1.5000    0.0000 C   0  0  0  0  0  0  0  0  0  0  0  0
    4.3301    1.0000    0.0000 C   0  0  0  0  0  0  0  0  0  0  0  0
    3.4640    2.5000    0.0000 O   0  0  0  0  0  0  0  0  0  0  0  0
    4.3301    0.0000    0.0000 O   0  0  0  0  0  0  0  0  0  0  0  0
    5.1961    1.5000    0.0000 O   0  0  0  0  0  0  0  0  0  0  0  0
    6.0622    1.0000    0.0000 C   0  0  0  0  0  0  0  0  0  0  0  0
    6.9281    1.5000    0.0000 C   0  0  0  0  0  0  0  0  0  0  0  0
    7.7942    1.0000    0.0000 C   0  0  0  0  0  0  0  0  0  0  0  0
  1  2  1  0  0  0  0 
  1  3  1  0  0  0  0 
  2  4  1  0  0  0  0 
  4  5  1  0  0  0  0 
  5  6  1  0  0  0  0 
  5  7  2  0  0  0  0 
  6  8  2  0  0  0  0 
  6  9  1  0  0  0  0 
  9 10  1  0  0  0  0 
 10 11  1  0  0  0  0 
 11 12  1  0  0  0  0 
M  END
> <Name>
Oxalic acid dipropyl ester

> <Source>
NIST2DMolFile

> <Tox>
211

> <CAS>
615-98-5

$$$$

  CDK

 16 16  0  0  0  0  0  0  0  0999 V2000
    2.5179    0.8057    0.0000 C   0  0  0  0  0  0  0  0  0  0  0  0
    1.5108    0.8057    0.0000 C   0  0  0  0  0  0  0  0  0  0  0  0
    2.9712    1.6618    0.0000 C   0  0  0  0  0  0  0  0  0  0  0  0
    1.0072    1.6618    0.0000 C   0  0  0  0  0  0  0  0  0  0  0  0
    1.0072    0.0000    0.0000 C   0  0  0  0  0  0  0  0  0  0  0  0
    2.5179    2.5683    0.0000 C   0  0  0  0  0  0  0  0  0  0  0  0
    3.9783    1.6618    0.0000 C   0  0  0  0  0  0  0  0  0  0  0  0
    1.5611    2.5683    0.0000 C   0  0  0  0  0  0  0  0  0  0  0  0
    0.0000    1.6618    0.0000 O   0  0  0  0  0  0  0  0  0  0  0  0
    3.9783    2.6690    0.0000 C   0  0  0  0  0  0  0  0  0  0  0  0
    4.9855    1.6618    0.0000 C   0  0  0  0  0  0  0  0  0  0  0  0
    3.9783    0.6547    0.0000 C   0  0  0  0  0  0  0  0  0  0  0  0
    1.1079    3.4748    0.0000 C   0  0  0  0  0  0  0  0  0  0  0  0
    0.2014    2.9712    0.0000 C   0  0  0  0  0  0  0  0  0  0  0  0
    0.6043    4.3309    0.0000 C   0  0  0  0  0  0  0  0  0  0  0  0
    1.9640    3.9280    0.0000 C   0  0  0  0  0  0  0  0  0  0  0  0
  2  1  2  0  0  0  0 
  1  3  1  0  0  0  0 
  4  2  1  0  0  0  0 
  2  5  1  0  0  0  0 
  3  6  2  0  0  0  0 
  3  7  1  0  0  0  0 
  8  4  2  0  0  0  0 
  4  9  1  0  0  0  0 
  6  8  1  0  0  0  0 
  7 10  1  0  0  0  0 
  7 11  1  0  0  0  0 
  7 12  1  0  0  0  0 
  8 13  1  0  0  0  0 
 13 14  1  0  0  0  0 
 13 15  1  0  0  0  0 
 13 16  1  0  0  0  0 
M  END
> <Name>
Phenol, 2,4-bis(1,1-dimethylethyl)-6-methyl-

> <Source>
NIST2DMolFile

> <Tox>
269

> <CAS>
616-55-7

$$$$

  CDK

  7  6  0  0  0  0  0  0  0  0999 V2000
    0.5016    1.7554    0.0000 C   0  0  0  0  0  0  0  0  0  0  0  0
    0.0000    0.8526    0.0000 C   0  0  0  0  0  0  0  0  0  0  0  0
    1.4545    1.7554    0.0000 N   0  0  0  0  0  0  0  0  0  0  0  0
    1.9561    0.9028    0.0000 C   0  0  0  0  0  0  0  0  0  0  0  0
    1.9561    2.6081    0.0000 C   0  0  0  0  0  0  0  0  0  0  0  0
    2.4576    0.0000    0.0000 N   0  0  0  0  0  0  0  0  0  0  0  0
    2.9592    2.6081    0.0000 C   0  0  0  0  0  0  0  0  0  0  0  0
  1  2  1  0  0  0  0 
  1  3  1  0  0  0  0 
  3  4  1  0  0  0  0 
  3  5  1  0  0  0  0 
  4  6  3  0  0  0  0 
  5  7  1  0  0  0  0 
M  END
> <Name>
DIETHYLCYANAMIDE

> <Source>
NIST2DMolFile

> <Tox>
188

> <CAS>
617-83-4

$$$$

  CDK

  7  7  0  0  0  0  0  0  0  0999 V2000
    0.0000    0.0000    0.0000 C   0  0  0  0  0  0  0  0  0  0  0  0
    0.4985    0.8972    0.0000 C   0  0  0  0  0  0  0  0  0  0  0  0
    1.4954    0.8972    0.0000 N   0  0  0  0  0  0  0  0  0  0  0  0
    2.0437    0.0498    0.0000 C   0  0  0  0  0  0  0  0  0  0  0  0
    2.0437    1.6948    0.0000 C   0  0  0  0  0  0  0  0  0  0  0  0
    2.9908    0.3988    0.0000 C   0  0  0  0  0  0  0  0  0  0  0  0
    2.9908    1.3957    0.0000 C   0  0  0  0  0  0  0  0  0  0  0  0
  1  2  1  0  0  0  0 
  2  3  1  0  0  0  0 
  3  4  1  0  0  0  0 
  5  3  1  0  0  0  0 
  4  6  2  0  0  0  0 
  7  5  2  0  0  0  0 
  6  7  1  0  0  0  0 
M  END
> <Name>
1H-PYRROLE, 1-ETHYL-

> <Source>
NIST2DMolFile

> <Tox>
129.5

> <CAS>
617-92-5

$$$$

  CDK

  9  9  0  0  0  0  0  0  0  0999 V2000
    0.0015    1.5018    0.0000 C   0  0  0  0  0  0  0  0  0  0  0  0
    0.8634    2.0016    0.0000 C   0  0  0  0  0  0  0  0  0  0  0  0
    0.0000    0.5000    0.0000 C   0  0  0  0  0  0  0  0  0  0  0  0
    1.7297    1.5062    0.0000 C   0  0  0  0  0  0  0  0  0  0  0  0
    0.8656    0.0000    0.0000 C   0  0  0  0  0  0  0  0  0  0  0  0
    1.7332    0.5005    0.0000 C   0  0  0  0  0  0  0  0  0  0  0  0
    2.5929    2.0090    0.0000 C   0  0  0  0  0  0  0  0  0  0  0  0
    3.4599    1.5128    0.0000 C   0  0  0  0  0  0  0  0  0  0  0  0
    2.5891    3.0080    0.0000 N   0  0  0  0  0  0  0  0  0  0  0  0
  1  2  1  0  0  0  0 
  3  1  2  0  0  0  0 
  2  4  2  0  0  0  0 
  5  3  1  0  0  0  0 
  4  6  1  0  0  0  0 
  4  7  1  0  0  0  0 
  6  5  2  0  0  0  0 
  7  8  1  0  0  0  0 
  7  9  1  0  0  0  0 
M  END
> <Name>
Benzenemethanamine, .alpha.-methyl-, (.+-.)-

> <Source>
NIST2DMolFile

> <Tox>
187

> <CAS>
618-36-0

$$$$

  CDK

 11 11  0  0  0  0  0  0  0  0999 V2000
    0.0497    1.7405    0.0000 C   0  0  0  0  0  0  0  0  0  0  0  0
    0.4973    0.8454    0.0000 C   0  0  0  0  0  0  0  0  0  0  0  0
    0.0000    0.0000    0.0000 C   0  0  0  0  0  0  0  0  0  0  0  0
    1.5416    0.8454    0.0000 C   0  0  0  0  0  0  0  0  0  0  0  0
    2.0389    1.7405    0.0000 C   0  0  0  0  0  0  0  0  0  0  0  0
    2.0389    0.0000    0.0000 C   0  0  0  0  0  0  0  0  0  0  0  0
    3.0335    1.7405    0.0000 C   0  0  0  0  0  0  0  0  0  0  0  0
    3.0335    0.0000    0.0000 C   0  0  0  0  0  0  0  0  0  0  0  0
    3.5307    2.5859    0.0000 O   0  0  0  0  0  0  0  0  0  0  0  0
    3.5307    0.8454    0.0000 C   0  0  0  0  0  0  0  0  0  0  0  0
    4.5253    0.8454    0.0000 C   0  0  0  0  0  0  0  0  0  0  0  0
  1  2  1  0  0  0  0 
  2  3  2  0  0  0  0 
  2  4  1  0  0  0  0 
  5  4  1  0  0  0  0 
  4  6  1  0  0  0  0 
  7  5  1  0  0  0  0 
  6  8  1  0  0  0  0 
  7  9  1  0  0  0  0 
 10  7  1  0  0  0  0 
  8 10  1  0  0  0  0 
 10 11  1  0  0  0  0 
M  END
> <Name>
Dihydrocarveol

> <Source>
NIST2DMolFile

> <Tox>
224.5

> <CAS>
619-01-2

$$$$

  CDK

 13 13  0  0  0  0  0  0  0  0999 V2000
    2.3063   -2.0006    0.0000 C   0  0  0  0  0  0  0  0  0  0  0  0
    3.4562   -2.6586    0.0000 C   0  0  0  0  0  0  0  0  0  0  0  0
    1.1498   -2.6586    0.0000 C   0  0  0  0  0  0  0  0  0  0  0  0
    2.3063   -0.6713    0.0000 N   0  0  0  0  0  0  0  0  0  0  0  0
    3.4562   -3.9879    0.0000 C   0  0  0  0  0  0  0  0  0  0  0  0
    1.1498   -3.9879    0.0000 C   0  0  0  0  0  0  0  0  0  0  0  0
    0.0000   -2.0006    0.0000 C   0  0  0  0  0  0  0  0  0  0  0  0
    1.1498   -0.0000    0.0000 O   0  0  0  0  0  0  0  0  0  0  0  0
    3.4562   -0.0000    0.0000 O   0  0  0  0  0  0  0  0  0  0  0  0
    2.3063   -4.6592    0.0000 C   0  0  0  0  0  0  0  0  0  0  0  0
    2.3063   -5.9885    0.0000 N   0  0  0  0  0  0  0  0  0  0  0  0
    3.4562   -6.6465    0.0000 O   0  0  0  0  0  0  0  0  0  0  0  0
    1.1498   -6.6465    0.0000 O   0  0  0  0  0  0  0  0  0  0  0  0
  1  2  2  0  0  0  0 
  1  3  1  0  0  0  0 
  1  4  1  0  0  0  0 
  2  5  1  0  0  0  0 
  6  3  2  0  0  0  0 
  3  7  1  0  0  0  0 
  4  8  1  0  0  0  0 
  4  9  2  0  0  0  0 
  5 10  2  0  0  0  0 
 10  6  1  0  0  0  0 
 10 11  1  0  0  0  0 
 11 12  1  0  0  0  0 
 11 13  2  0  0  0  0 
M  CHG  1   4   1
M  CHG  1   8  -1
M  CHG  1  11   1
M  CHG  1  12  -1
M  END
> <Name>
2,5-DINITROTOLUENE

> <Source>
DSSTox2DMolFile

> <Tox>
284

> <CAS>
619-15-8

$$$$

  CDK

  9  8  0  0  0  0  0  0  0  0999 V2000
    0.5014   -0.7486   -0.2890 O   0  0  0  0  0  0  0  0  0  0  0  0
    1.7461   -0.1626    0.0606 N   0  0  0  0  0  0  0  0  0  0  0  0
   -0.6247   -0.0015    0.1771 C   0  0  0  0  0  0  0  0  0  0  0  0
    1.6909    0.4703    1.1156 O   0  0  0  0  0  0  0  0  0  0  0  0
    2.7018   -0.3439   -0.6973 O   0  0  0  0  0  0  0  0  0  0  0  0
   -1.8873   -0.7321   -0.2609 C   0  0  0  0  0  0  0  0  0  0  0  0
   -0.5595    1.4021   -0.4140 C   0  0  0  0  0  0  0  0  0  0  0  0
   -1.8802   -2.0421    0.2966 O   0  0  0  0  0  0  0  0  0  0  0  0
   -1.6885    2.1583    0.0113 O   0  0  0  0  0  0  0  0  0  0  0  0
  1  2  1  0  0  0  0 
  1  3  1  0  0  0  0 
  4  2  1  0  0  0  0 
  5  2  2  0  0  0  0 
  3  6  1  0  0  0  0 
  3  7  1  0  0  0  0 
  8  6  1  0  0  0  0 
  9  7  1  0  0  0  0 
M  CHG  1   2   1
M  CHG  1   4  -1
M  END
> <Name>
GLYCEROL-BETA-NITRATE

> <Source>
Chemidplus3DMolFile

> <Tox>
157.5

> <CAS>
620-12-2

$$$$

  CDK

  9  9  0  0  0  0  0  0  0  0999 V2000
    0.0000    0.0000    0.0000 C   0  0  0  0  0  0  0  0  0  0  0  0
    0.4998    0.8496    0.0000 C   0  0  0  0  0  0  0  0  0  0  0  0
    1.4994    0.8496    0.0000 C   0  0  0  0  0  0  0  0  0  0  0  0
    1.9992    1.7493    0.0000 C   0  0  0  0  0  0  0  0  0  0  0  0
    1.9992    0.0000    0.0000 C   0  0  0  0  0  0  0  0  0  0  0  0
    2.9988    1.7493    0.0000 C   0  0  0  0  0  0  0  0  0  0  0  0
    2.9988    0.0000    0.0000 C   0  0  0  0  0  0  0  0  0  0  0  0
    3.4985    2.5989    0.0000 Cl  0  0  0  0  0  0  0  0  0  0  0  0
    3.4985    0.8496    0.0000 C   0  0  0  0  0  0  0  0  0  0  0  0
  1  2  1  0  0  0  0 
  2  3  1  0  0  0  0 
  4  3  2  0  0  0  0 
  3  5  1  0  0  0  0 
  6  4  1  0  0  0  0 
  5  7  2  0  0  0  0 
  6  8  1  0  0  0  0 
  9  6  2  0  0  0  0 
  7  9  1  0  0  0  0 
M  END
> <Name>
BENZENE, 1-CHLORO-3-ETHYL-

> <Source>
NIST2DMolFile

> <Tox>
183.8

> <CAS>
620-16-6

$$$$

  CDK

  9  9  0  0  0  0  0  0  0  0999 V2000
    0.8485    1.4973    0.0000 C   0  0  0  0  0  0  0  0  0  0  0  0
    1.6970    1.9964    0.0000 C   0  0  0  0  0  0  0  0  0  0  0  0
    0.8485    0.4991    0.0000 C   0  0  0  0  0  0  0  0  0  0  0  0
    0.0000    1.9964    0.0000 C   0  0  0  0  0  0  0  0  0  0  0  0
    2.5953    1.4973    0.0000 C   0  0  0  0  0  0  0  0  0  0  0  0
    1.6970    0.0000    0.0000 C   0  0  0  0  0  0  0  0  0  0  0  0
    2.5953    0.4991    0.0000 C   0  0  0  0  0  0  0  0  0  0  0  0
    3.4438    2.0463    0.0000 C   0  0  0  0  0  0  0  0  0  0  0  0
    4.2923    1.5472    0.0000 Cl  0  0  0  0  0  0  0  0  0  0  0  0
  1  2  2  0  0  0  0 
  3  1  1  0  0  0  0 
  1  4  1  0  0  0  0 
  2  5  1  0  0  0  0 
  6  3  2  0  0  0  0 
  5  7  2  0  0  0  0 
  5  8  1  0  0  0  0 
  7  6  1  0  0  0  0 
  8  9  1  0  0  0  0 
M  END
> <Name>
BENZENE, 1-(CHLOROMETHYL)-3-METHYL-

> <Source>
NIST2DMolFile

> <Tox>
195.5

> <CAS>
620-19-9

$$$$

  CDK

 12 12  0  0  0  0  0  0  0  0999 V2000
    3.0060    4.3086    0.0000 C   0  0  0  0  0  0  0  0  0  0  0  0
    3.5070    3.4569    0.0000 O   0  0  0  0  0  0  0  0  0  0  0  0
    3.0060    2.6052    0.0000 C   0  0  0  0  0  0  0  0  0  0  0  0
    3.5070    1.7034    0.0000 C   0  0  0  0  0  0  0  0  0  0  0  0
    2.0040    2.6052    0.0000 C   0  0  0  0  0  0  0  0  0  0  0  0
    3.0060    0.8517    0.0000 C   0  0  0  0  0  0  0  0  0  0  0  0
    1.5030    1.7034    0.0000 C   0  0  0  0  0  0  0  0  0  0  0  0
    3.5070    0.0000    0.0000 O   0  0  0  0  0  0  0  0  0  0  0  0
    2.0040    0.8517    0.0000 C   0  0  0  0  0  0  0  0  0  0  0  0
    0.5010    1.7034    0.0000 O   0  0  0  0  0  0  0  0  0  0  0  0
    4.5090    0.0000    0.0000 C   0  0  0  0  0  0  0  0  0  0  0  0
    0.0000    0.8517    0.0000 C   0  0  0  0  0  0  0  0  0  0  0  0
  1  2  1  0  0  0  0 
  2  3  1  0  0  0  0 
  4  3  2  0  0  0  0 
  3  5  1  0  0  0  0 
  6  4  1  0  0  0  0 
  5  7  2  0  0  0  0 
  6  8  1  0  0  0  0 
  9  6  2  0  0  0  0 
  7  9  1  0  0  0  0 
  7 10  1  0  0  0  0 
  8 11  1  0  0  0  0 
 10 12  1  0  0  0  0 
M  END
> <Name>
Benzene, 1,3,5-trimethoxy-

> <Source>
NIST2DMolFile

> <Tox>
255.5

> <CAS>
621-23-8

$$$$

  CDK

 10 10  0  0  0  0  0  0  0  0999 V2000
    0.9996    0.0000    0.0000 C   0  0  0  0  0  0  0  0  0  0  0  0
    1.4994    0.8497    0.0000 O   0  0  0  0  0  0  0  0  0  0  0  0
    0.0000    0.0000    0.0000 C   0  0  0  0  0  0  0  0  0  0  0  0
    2.4991    0.8497    0.0000 C   0  0  0  0  0  0  0  0  0  0  0  0
    2.9989    1.7493    0.0000 C   0  0  0  0  0  0  0  0  0  0  0  0
    2.9989    0.0000    0.0000 C   0  0  0  0  0  0  0  0  0  0  0  0
    3.9985    1.7493    0.0000 C   0  0  0  0  0  0  0  0  0  0  0  0
    3.9985    0.0000    0.0000 C   0  0  0  0  0  0  0  0  0  0  0  0
    4.4983    2.5990    0.0000 C   0  0  0  0  0  0  0  0  0  0  0  0
    4.4983    0.8497    0.0000 C   0  0  0  0  0  0  0  0  0  0  0  0
  1  2  1  0  0  0  0 
  1  3  1  0  0  0  0 
  2  4  1  0  0  0  0 
  5  4  2  0  0  0  0 
  4  6  1  0  0  0  0 
  7  5  1  0  0  0  0 
  6  8  2  0  0  0  0 
  7  9  1  0  0  0  0 
 10  7  2  0  0  0  0 
  8 10  1  0  0  0  0 
M  END
> <Name>
Benzene, 1-ethoxy-3-methyl-

> <Source>
NIST2DMolFile

> <Tox>
192

> <CAS>
621-32-9

$$$$

  CDK

  9  8  0  0  0  0  0  0  0  0999 V2000
    0.0000    0.0000    0.0000 C   0  0  0  0  0  0  0  0  0  0  0  0
   -0.5400   -0.7400   -1.2200 C   0  0  0  0  0  0  0  0  0  0  0  0
   -0.5200    0.1400   -2.3200 O   0  0  0  0  0  0  0  0  0  0  0  0
    0.7600    0.5800   -2.6600 C   0  0  0  0  0  0  0  0  0  0  0  0
    1.5600   -0.6200   -3.1800 C   0  0  0  0  0  0  0  0  0  0  0  0
    0.7000    1.5400   -3.6800 O   0  0  0  0  0  0  0  0  0  0  0  0
    0.7600   -1.2800   -4.1400 O   0  0  0  0  0  0  0  0  0  0  0  0
    0.1000    2.7400   -3.2800 C   0  0  0  0  0  0  0  0  0  0  0  0
    0.1200    3.7200   -4.4600 C   0  0  0  0  0  0  0  0  0  0  0  0
  1  2  1  0  0  0  0 
  2  3  1  0  0  0  0 
  3  4  1  0  0  0  0 
  4  5  1  0  0  0  0 
  4  6  1  0  0  0  0 
  5  7  1  0  0  0  0 
  6  8  1  0  0  0  0 
  8  9  1  0  0  0  0 
M  END
> <Name>
ETHANOL, 2,2-DIETHOXY-

> <Source>
NIH3DMolFile

> <Tox>
167

> <CAS>
621-63-6

$$$$

  CDK

  9  9  0  0  0  0  0  0  0  0999 V2000
    0.0000    0.0000    0.0000 Cl  0  0  0  0  0  0  0  0  0  0  0  0
    0.5600    0.5000   -1.6200 C   0  0  0  0  0  0  0  0  0  0  0  0
   -0.6000    0.4200   -2.6000 C   0  0  0  0  0  0  0  0  0  0  0  0
   -1.2000   -0.9400   -2.6200 C   0  0  0  0  0  0  0  0  0  0  0  0
   -2.5600   -1.1200   -2.9200 C   0  0  0  0  0  0  0  0  0  0  0  0
   -0.4000   -2.0800   -2.3400 C   0  0  0  0  0  0  0  0  0  0  0  0
   -3.1400   -2.4000   -2.9400 C   0  0  0  0  0  0  0  0  0  0  0  0
   -0.9800   -3.3600   -2.3600 C   0  0  0  0  0  0  0  0  0  0  0  0
   -2.3400   -3.5200   -2.6600 C   0  0  0  0  0  0  0  0  0  0  0  0
  1  2  1  0  0  0  0 
  2  3  1  0  0  0  0 
  3  4  1  0  0  0  0 
  4  5  2  0  0  0  0 
  4  6  1  0  0  0  0 
  5  7  1  0  0  0  0 
  8  6  2  0  0  0  0 
  7  9  2  0  0  0  0 
  9  8  1  0  0  0  0 
M  END
> <Name>
B-PHENYL ETHYL CHLORIDE

> <Source>
NIH3DMolFile

> <Tox>
197

> <CAS>
622-24-2

$$$$

  CDK

  9  9  0  0  0  0  0  0  0  0999 V2000
    0.0000    0.0000    0.0000 C   0  0  0  0  0  0  0  0  0  0  0  0
   -1.0400   -1.0200    0.0000 N   0  0  0  0  0  0  0  0  0  0  0  0
   -0.7200   -2.2600    0.0000 C   0  0  0  0  0  0  0  0  0  0  0  0
   -1.8000   -3.2800    0.0000 C   0  0  0  0  0  0  0  0  0  0  0  0
   -3.1400   -2.9000    0.0000 C   0  0  0  0  0  0  0  0  0  0  0  0
   -1.4600   -4.6600    0.0000 C   0  0  0  0  0  0  0  0  0  0  0  0
   -4.1600   -3.8800    0.0000 C   0  0  0  0  0  0  0  0  0  0  0  0
   -2.4800   -5.6400    0.0000 C   0  0  0  0  0  0  0  0  0  0  0  0
   -3.8200   -5.2400    0.0000 C   0  0  0  0  0  0  0  0  0  0  0  0
  1  2  1  0  0  0  0 
  2  3  2  0  0  0  0 
  3  4  1  0  0  0  0 
  4  5  2  0  0  0  0 
  4  6  1  0  0  0  0 
  5  7  1  0  0  0  0 
  8  6  2  0  0  0  0 
  7  9  2  0  0  0  0 
  9  8  1  0  0  0  0 
M  END
> <Name>
METHANAMINE, N-(PHENYLMETHYLENE)-

> <Source>
NIH3DMolFile

> <Tox>
185

> <CAS>
622-29-7

$$$$

  CDK

  9  9  0  0  0  0  0  0  0  0999 V2000
    0.0000    0.8555    0.0000 N   0  0  0  0  0  0  0  0  0  0  0  0
    0.5032    1.7109    0.0000 C   0  0  0  0  0  0  0  0  0  0  0  0
    0.4529    0.0000    0.0000 O   0  0  0  0  0  0  0  0  0  0  0  0
    1.5600    1.7109    0.0000 C   0  0  0  0  0  0  0  0  0  0  0  0
    2.0632    2.5664    0.0000 C   0  0  0  0  0  0  0  0  0  0  0  0
    2.0632    0.8555    0.0000 C   0  0  0  0  0  0  0  0  0  0  0  0
    3.0696    2.5664    0.0000 C   0  0  0  0  0  0  0  0  0  0  0  0
    3.0696    0.8555    0.0000 C   0  0  0  0  0  0  0  0  0  0  0  0
    3.5728    1.7109    0.0000 C   0  0  0  0  0  0  0  0  0  0  0  0
  1  2  2  0  0  0  0 
  1  3  1  0  0  0  0 
  2  4  1  0  0  0  0 
  5  4  2  0  0  0  0 
  4  6  1  0  0  0  0 
  7  5  1  0  0  0  0 
  6  8  2  0  0  0  0 
  9  7  2  0  0  0  0 
  8  9  1  0  0  0  0 
M  END
> <Name>
BENZALDEHYDE, OXIME, (Z)-

> <Source>
NIST2DMolFile

> <Tox>
200

> <CAS>
622-32-2

$$$$

  CDK

  9  9  0  0  0  0  0  0  0  0999 V2000
    1.0078    0.0000    0.0000 C   0  0  0  0  0  0  0  0  0  0  0  0
    1.5116    0.8566    0.0000 C   0  0  0  0  0  0  0  0  0  0  0  0
    0.0000    0.0000    0.0000 C   0  0  0  0  0  0  0  0  0  0  0  0
    2.5194    0.8566    0.0000 C   0  0  0  0  0  0  0  0  0  0  0  0
    3.0233    1.7132    0.0000 C   0  0  0  0  0  0  0  0  0  0  0  0
    3.0233    0.0000    0.0000 N   0  0  0  0  0  0  0  0  0  0  0  0
    4.0310    1.7132    0.0000 C   0  0  0  0  0  0  0  0  0  0  0  0
    4.0310    0.0000    0.0000 C   0  0  0  0  0  0  0  0  0  0  0  0
    4.5349    0.8566    0.0000 C   0  0  0  0  0  0  0  0  0  0  0  0
  1  2  1  0  0  0  0 
  1  3  1  0  0  0  0 
  2  4  1  0  0  0  0 
  5  4  2  0  0  0  0 
  4  6  1  0  0  0  0 
  7  5  1  0  0  0  0 
  6  8  2  0  0  0  0 
  9  7  2  0  0  0  0 
  8  9  1  0  0  0  0 
M  END
> <Name>
Pyridine, 2-propyl-

> <Source>
NIST2DMolFile

> <Tox>
167

> <CAS>
622-39-9

$$$$

  CDK

  9  9  0  0  0  0  0  0  0  0999 V2000
    0.0000   -0.0000    0.0000 O   0  0  0  0  0  0  0  0  0  0  0  0
    1.3283   -0.0000    0.0000 C   0  0  0  0  0  0  0  0  0  0  0  0
    1.9925   -1.1548    0.0000 C   0  0  0  0  0  0  0  0  0  0  0  0
    3.3269   -1.1548    0.0000 N   0  0  0  0  0  0  0  0  0  0  0  0
    3.9910   -0.0000    0.0000 C   0  0  0  0  0  0  0  0  0  0  0  0
    3.9910   -2.3037    0.0000 C   0  0  0  0  0  0  0  0  0  0  0  0
    5.3194   -0.0000    0.0000 C   0  0  0  0  0  0  0  0  0  0  0  0
    5.3194   -2.3037    0.0000 C   0  0  0  0  0  0  0  0  0  0  0  0
    5.9836   -1.1548    0.0000 O   0  0  0  0  0  0  0  0  0  0  0  0
  1  2  1  0  0  0  0 
  2  3  1  0  0  0  0 
  3  4  1  0  0  0  0 
  4  5  1  0  0  0  0 
  4  6  1  0  0  0  0 
  5  7  1  0  0  0  0 
  8  6  1  0  0  0  0 
  7  9  1  0  0  0  0 
  9  8  1  0  0  0  0 
M  END
> <Name>
4-Morpholineethanol

> <Source>
DSSTox2DMolFile

> <Tox>
227

> <CAS>
622-40-2

$$$$

  CDK

 10 10  0  0  0  0  0  0  0  0999 V2000
   -2.2523   -0.0690   -0.1492 C   0  0  0  0  0  0  0  0  0  0  0  0
   -3.5074    0.4296    0.5118 C   0  0  0  0  0  0  0  0  0  0  0  0
   -2.1681   -0.8684   -1.0609 O   0  0  0  0  0  0  0  0  0  0  0  0
   -1.1281    0.4855    0.3885 O   0  0  0  0  0  0  0  0  0  0  0  0
    0.1615    0.1447   -0.1487 C   0  0  0  0  0  0  0  0  0  0  0  0
    1.0678    1.3396    0.1692 C   0  0  0  0  0  0  0  0  0  0  0  0
    0.6916   -1.1450    0.5006 C   0  0  0  0  0  0  0  0  0  0  0  0
    2.4494    1.1330   -0.4378 C   0  0  0  0  0  0  0  0  0  0  0  0
    2.2038   -1.1102    0.6779 C   0  0  0  0  0  0  0  0  0  0  0  0
    2.8791   -0.3298   -0.4358 C   0  0  0  0  0  0  0  0  0  0  0  0
  1  2  1  0  0  0  0 
  1  3  2  0  0  0  0 
  1  4  1  0  0  0  0 
  4  5  1  0  0  0  0 
  5  6  1  0  0  0  0 
  5  7  1  0  0  0  0 
  6  8  1  0  0  0  0 
  9  7  1  0  0  0  0 
  8 10  1  0  0  0  0 
 10  9  1  0  0  0  0 
M  END
> <Name>
CYCLOHEXYL ACETATE

> <Source>
DougDB3DMolFile

> <Tox>
173

> <CAS>
622-45-7

$$$$

  CDK

 10 10  0  0  0  0  0  0  0  0999 V2000
    3.4125   -0.0500    0.0000 C   0  0  0  0  0  0  0  0  0  0  0  0
    2.2292   -1.0417    0.0000 N   0  0  0  0  0  0  0  0  0  0  0  0
    4.6042    0.9208    0.0000 S   0  0  0  0  0  0  0  0  0  0  0  0
    0.7875   -0.5167    0.0000 C   0  0  0  0  0  0  0  0  0  0  0  0
    0.5125    0.9958    0.0000 C   0  0  0  0  0  0  0  0  0  0  0  0
   -0.3958   -1.5125    0.0000 C   0  0  0  0  0  0  0  0  0  0  0  0
   -0.9333    1.5208    0.0000 C   0  0  0  0  0  0  0  0  0  0  0  0
   -1.8458   -0.9917    0.0000 C   0  0  0  0  0  0  0  0  0  0  0  0
   -2.1083    0.5250    0.0000 C   0  0  0  0  0  0  0  0  0  0  0  0
   -3.5583    1.0500    0.0000 C   0  0  0  0  0  0  0  0  0  0  0  0
  2  1  2  0  0  0  0 
  3  1  2  0  0  0  0 
  4  2  1  0  0  0  0 
  5  4  1  0  0  0  0 
  6  4  2  0  0  0  0 
  7  5  2  0  0  0  0 
  8  6  1  0  0  0  0 
  7  9  1  0  0  0  0 
  9  8  2  0  0  0  0 
 10  9  1  0  0  0  0 
M  END
> <Name>
4-METHYLPHENYLISOTHIOCYANATE

> <Source>
IndexNet2DMolFile

> <Tox>
237

> <CAS>
622-59-3

$$$$

  CDK

 10 10  0  0  0  0  0  0  0  0999 V2000
    0.0000    0.0000    0.0000 Cl  0  0  0  0  0  0  0  0  0  0  0  0
   -1.7000   -0.5000   -0.2600 C   0  0  0  0  0  0  0  0  0  0  0  0
   -2.3600   -0.7800    1.0800 C   0  0  0  0  0  0  0  0  0  0  0  0
   -3.7200   -1.1800    0.8600 O   0  0  0  0  0  0  0  0  0  0  0  0
   -3.9600   -2.4600    0.8000 C   0  0  0  0  0  0  0  0  0  0  0  0
   -5.2600   -2.9400    1.0800 C   0  0  0  0  0  0  0  0  0  0  0  0
   -2.9400   -3.3800    0.5000 C   0  0  0  0  0  0  0  0  0  0  0  0
   -5.5400   -4.3000    1.0200 C   0  0  0  0  0  0  0  0  0  0  0  0
   -3.2200   -4.7600    0.4400 C   0  0  0  0  0  0  0  0  0  0  0  0
   -4.5200   -5.2200    0.7200 C   0  0  0  0  0  0  0  0  0  0  0  0
  1  2  1  0  0  0  0 
  2  3  1  0  0  0  0 
  3  4  1  0  0  0  0 
  4  5  1  0  0  0  0 
  5  6  2  0  0  0  0 
  5  7  1  0  0  0  0 
  6  8  1  0  0  0  0 
  9  7  2  0  0  0  0 
  8 10  2  0  0  0  0 
 10  9  1  0  0  0  0 
M  END
> <Name>
Benzene, (2-chloroethoxy)-

> <Source>
NIH3DMolFile

> <Tox>
218.5

> <CAS>
622-86-6

$$$$

  CDK

  9  8  0  0  0  0  0  0  0  0999 V2000
    0.0000    1.7490    0.0000 C   0  0  0  0  0  0  0  0  0  0  0  0
    0.9995    1.7490    0.0000 C   0  0  0  0  0  0  0  0  0  0  0  0
    1.4992    0.8995    0.0000 N   0  0  0  0  0  0  0  0  0  0  0  0
    2.3987    1.3992    0.0000 C   0  0  0  0  0  0  0  0  0  0  0  0
    0.9995    0.0000    0.0000 C   0  0  0  0  0  0  0  0  0  0  0  0
    3.1982    0.8995    0.0000 C   0  0  0  0  0  0  0  0  0  0  0  0
    0.0000    0.0000    0.0000 C   0  0  0  0  0  0  0  0  0  0  0  0
    4.0478    1.3992    0.0000 C   0  0  0  0  0  0  0  0  0  0  0  0
    4.9473    0.8995    0.0000 O   0  0  0  0  0  0  0  0  0  0  0  0
  1  2  1  0  0  0  0 
  2  3  1  0  0  0  0 
  3  4  1  0  0  0  0 
  3  5  1  0  0  0  0 
  4  6  1  0  0  0  0 
  5  7  1  0  0  0  0 
  6  8  1  0  0  0  0 
  8  9  1  0  0  0  0 
M  END
> <Name>
1-Propanol, 3-(diethylamino)-

> <Source>
NIST2DMolFile

> <Tox>
189.5

> <CAS>
622-93-5

$$$$

  CDK

  9  9  0  0  0  0  0  0  0  0999 V2000
    0.0000    0.0000    0.0000 C   0  0  0  0  0  0  0  0  0  0  0  0
    0.5039    0.8566    0.0000 O   0  0  0  0  0  0  0  0  0  0  0  0
    1.5116    0.8566    0.0000 C   0  0  0  0  0  0  0  0  0  0  0  0
    2.0155    1.7132    0.0000 C   0  0  0  0  0  0  0  0  0  0  0  0
    2.0155    0.0000    0.0000 C   0  0  0  0  0  0  0  0  0  0  0  0
    3.0233    1.7132    0.0000 C   0  0  0  0  0  0  0  0  0  0  0  0
    3.0233    0.0000    0.0000 C   0  0  0  0  0  0  0  0  0  0  0  0
    3.5271    0.8566    0.0000 C   0  0  0  0  0  0  0  0  0  0  0  0
    4.5349    0.8566    0.0000 Cl  0  0  0  0  0  0  0  0  0  0  0  0
  1  2  1  0  0  0  0 
  2  3  1  0  0  0  0 
  4  3  2  0  0  0  0 
  3  5  1  0  0  0  0 
  6  4  1  0  0  0  0 
  5  7  2  0  0  0  0 
  8  6  2  0  0  0  0 
  7  8  1  0  0  0  0 
  8  9  1  0  0  0  0 
M  END
> <Name>
4-CHLOROANISOLE

> <Source>
NIST2DMolFile

> <Tox>
197.5

> <CAS>
623-12-1

$$$$

  CDK

  7  6  0  0  0  0  0  0  0  0999 V2000
    0.0000    1.0043    0.0000 Cl  0  0  0  0  0  0  0  0  0  0  0  0
    0.8537    1.5065    0.0000 C   0  0  0  0  0  0  0  0  0  0  0  0
    1.7576    1.0043    0.0000 C   0  0  0  0  0  0  0  0  0  0  0  0
    2.6112    1.5065    0.0000 O   0  0  0  0  0  0  0  0  0  0  0  0
    1.7576    0.0000    0.0000 Cl  0  0  0  0  0  0  0  0  0  0  0  0
    3.4649    1.0043    0.0000 C   0  0  0  0  0  0  0  0  0  0  0  0
    4.3186    1.5065    0.0000 C   0  0  0  0  0  0  0  0  0  0  0  0
  1  2  1  0  0  0  0 
  2  3  1  0  0  0  0 
  4  3  1  0  0  0  0 
  5  3  1  0  0  0  0 
  6  4  1  0  0  0  0 
  7  6  1  0  0  0  0 
M  END
> <Name>
Ethane, 1,2-dichloro-1-ethoxy-

> <Source>
NIST2DMolFile

> <Tox>
145

> <CAS>
623-46-1

$$$$

  CDK

 19 18  0  0  0  0  0  0  0  0999 V2000
   13.8535    0.0000    0.0000 C   0  0  0  0  0  0  0  0  0  0  0  0
   13.0032    0.5001    0.0000 C   0  0  0  0  0  0  0  0  0  0  0  0
   12.1030    0.0000    0.0000 C   0  0  0  0  0  0  0  0  0  0  0  0
   11.2028    0.5001    0.0000 C   0  0  0  0  0  0  0  0  0  0  0  0
   10.3026    0.0000    0.0000 C   0  0  0  0  0  0  0  0  0  0  0  0
    9.4524    0.5001    0.0000 C   0  0  0  0  0  0  0  0  0  0  0  0
    8.5521    0.0000    0.0000 C   0  0  0  0  0  0  0  0  0  0  0  0
    7.6519    0.5001    0.0000 C   0  0  0  0  0  0  0  0  0  0  0  0
    7.6519    1.5004    0.0000 O   0  0  0  0  0  0  0  0  0  0  0  0
    6.8017    0.0000    0.0000 O   0  0  0  0  0  0  0  0  0  0  0  0
    5.9515    0.5001    0.0000 C   0  0  0  0  0  0  0  0  0  0  0  0
    5.9515    1.5004    0.0000 O   0  0  0  0  0  0  0  0  0  0  0  0
    5.1013    0.0000    0.0000 C   0  0  0  0  0  0  0  0  0  0  0  0
    4.2511    0.5001    0.0000 C   0  0  0  0  0  0  0  0  0  0  0  0
    3.4008    0.0000    0.0000 C   0  0  0  0  0  0  0  0  0  0  0  0
    2.5506    0.5001    0.0000 C   0  0  0  0  0  0  0  0  0  0  0  0
    1.7004    0.0000    0.0000 C   0  0  0  0  0  0  0  0  0  0  0  0
    0.8502    0.5001    0.0000 C   0  0  0  0  0  0  0  0  0  0  0  0
    0.0000    0.0000    0.0000 C   0  0  0  0  0  0  0  0  0  0  0  0
  1  2  1  0  0  0  0 
  2  3  1  0  0  0  0 
  3  4  1  0  0  0  0 
  4  5  1  0  0  0  0 
  5  6  1  0  0  0  0 
  6  7  1  0  0  0  0 
  7  8  1  0  0  0  0 
  9  8  2  0  0  0  0 
  8 10  1  0  0  0  0 
 10 11  1  0  0  0  0 
 12 11  2  0  0  0  0 
 11 13  1  0  0  0  0 
 13 14  1  0  0  0  0 
 14 15  1  0  0  0  0 
 15 16  1  0  0  0  0 
 16 17  1  0  0  0  0 
 17 18  1  0  0  0  0 
 18 19  1  0  0  0  0 
M  END
> <Name>
Octanoic acid, anhydride

> <Source>
NIST2DMolFile

> <Tox>
282.5

> <CAS>
623-66-5

$$$$

  CDK

 10  9  0  0  0  0  0  0  0  0999 V2000
    2.9989    1.7282    0.0000 C   0  0  0  0  0  0  0  0  0  0  0  0
    2.4906    2.5923    0.0000 O   0  0  0  0  0  0  0  0  0  0  0  0
    4.0155    1.7282    0.0000 O   0  0  0  0  0  0  0  0  0  0  0  0
    2.4906    0.8641    0.0000 O   0  0  0  0  0  0  0  0  0  0  0  0
    1.4740    2.6431    0.0000 C   0  0  0  0  0  0  0  0  0  0  0  0
    1.4740    0.8641    0.0000 C   0  0  0  0  0  0  0  0  0  0  0  0
    1.0166    3.4564    0.0000 C   0  0  0  0  0  0  0  0  0  0  0  0
    1.0166    0.0000    0.0000 C   0  0  0  0  0  0  0  0  0  0  0  0
    0.0000    3.4564    0.0000 C   0  0  0  0  0  0  0  0  0  0  0  0
    0.0000    0.0000    0.0000 C   0  0  0  0  0  0  0  0  0  0  0  0
  1  2  1  0  0  0  0 
  1  3  2  0  0  0  0 
  1  4  1  0  0  0  0 
  2  5  1  0  0  0  0 
  4  6  1  0  0  0  0 
  5  7  1  0  0  0  0 
  6  8  1  0  0  0  0 
  7  9  1  0  0  0  0 
  8 10  1  0  0  0  0 
M  END
> <Name>
Carbonic acid, dipropyl ester

> <Source>
NIST2DMolFile

> <Tox>
168

> <CAS>
623-96-1

$$$$

  CDK

 17 16  0  0  0  0  0  0  0  0999 V2000
    0.0000    0.0000    0.0000 O   0  0  0  0  0  0  0  0  0  0  0  0
    0.4400   -0.9800   -0.5200 C   0  0  0  0  0  0  0  0  0  0  0  0
    1.1000   -2.0600    0.3000 C   0  0  0  0  0  0  0  0  0  0  0  0
    0.4000   -1.2200   -1.8400 O   0  0  0  0  0  0  0  0  0  0  0  0
    2.2800   -1.5400    1.1000 C   0  0  0  0  0  0  0  0  0  0  0  0
   -0.3000   -0.1800   -2.5400 C   0  0  0  0  0  0  0  0  0  0  0  0
    2.8400   -2.5800    2.0800 C   0  0  0  0  0  0  0  0  0  0  0  0
   -1.8000   -0.3200   -2.2600 C   0  0  0  0  0  0  0  0  0  0  0  0
    3.8000   -1.9800    3.1000 C   0  0  0  0  0  0  0  0  0  0  0  0
    4.1000   -2.9400    4.2600 C   0  0  0  0  0  0  0  0  0  0  0  0
    4.3800   -2.2000    5.5600 C   0  0  0  0  0  0  0  0  0  0  0  0
    4.3400   -3.1200    6.7800 C   0  0  0  0  0  0  0  0  0  0  0  0
    4.0400   -2.4000    8.0600 C   0  0  0  0  0  0  0  0  0  0  0  0
    4.7800   -1.5200    8.4600 O   0  0  0  0  0  0  0  0  0  0  0  0
    2.9200   -2.7800    8.6800 O   0  0  0  0  0  0  0  0  0  0  0  0
    2.5400   -1.8600    9.7000 C   0  0  0  0  0  0  0  0  0  0  0  0
    1.9800   -0.5800    9.0600 C   0  0  0  0  0  0  0  0  0  0  0  0
  1  2  2  0  0  0  0 
  2  3  1  0  0  0  0 
  2  4  1  0  0  0  0 
  3  5  1  0  0  0  0 
  6  4  1  0  0  0  0 
  5  7  1  0  0  0  0 
  8  6  1  0  0  0  0 
  7  9  1  0  0  0  0 
  9 10  1  0  0  0  0 
 10 11  1  0  0  0  0 
 11 12  1  0  0  0  0 
 12 13  1  0  0  0  0 
 13 14  2  0  0  0  0 
 13 15  1  0  0  0  0 
 16 15  1  0  0  0  0 
 17 16  1  0  0  0  0 
M  END
> <Name>
DIETHYL AZELATE

> <Source>
NIH3DMolFile

> <Tox>
291.5

> <CAS>
624-17-9

$$$$

  CDK

  8  7  0  0  0  0  0  0  0  0999 V2000
    2.5986    0.0000    0.0000 C   0  0  0  0  0  0  0  0  0  0  0  0
    3.4482    0.4997    0.0000 C   0  0  0  0  0  0  0  0  0  0  0  0
    1.7491    0.4997    0.0000 C   0  0  0  0  0  0  0  0  0  0  0  0
    4.3477    0.0000    0.0000 O   0  0  0  0  0  0  0  0  0  0  0  0
    3.4482    1.4992    0.0000 O   0  0  0  0  0  0  0  0  0  0  0  0
    0.8495    0.0000    0.0000 C   0  0  0  0  0  0  0  0  0  0  0  0
    5.1972    0.4997    0.0000 C   0  0  0  0  0  0  0  0  0  0  0  0
    0.0000    0.4997    0.0000 C   0  0  0  0  0  0  0  0  0  0  0  0
  1  2  1  0  0  0  0 
  1  3  1  0  0  0  0 
  2  4  1  0  0  0  0 
  2  5  2  0  0  0  0 
  3  6  1  0  0  0  0 
  4  7  1  0  0  0  0 
  6  8  1  0  0  0  0 
M  END
> <Name>
METHYL VALERATE

> <Source>
NIST2DMolFile

> <Tox>
127.4

> <CAS>
624-24-8

$$$$

  CDK

  4  3  0  0  0  0  0  0  0  0999 V2000
    1.9959    0.0000    0.0000 C   0  0  0  0  0  0  0  0  0  0  0  0
    0.9480    0.0000    0.0000 C   0  0  0  0  0  0  0  0  0  0  0  0
    2.4449    0.8981    0.0000 Cl  0  0  0  0  0  0  0  0  0  0  0  0
    0.0000    0.0000    0.0000 C   0  0  0  0  0  0  0  0  0  0  0  0
  1  2  1  0  0  0  0 
  1  3  1  0  0  0  0 
  2  4  3  0  0  0  0 
M  END
> <Name>
1-Propyne, 3-chloro-

> <Source>
NIST2DMolFile

> <Tox>
58

> <CAS>
624-65-7

$$$$

  CDK

  4  3  0  0  0  0  0  0  0  0999 V2000
    0.0000    0.0000    0.0000 C   0  0  0  0  0  0  0  0  0  0  0  0
   -1.4600    0.0000    0.0000 C   0  0  0  0  0  0  0  0  0  0  0  0
    1.1600    0.0000    0.0000 N   0  0  0  0  0  0  0  0  0  0  0  0
   -2.1800    2.0400    0.0000 I   0  0  0  0  0  0  0  0  0  0  0  0
  1  2  1  0  0  0  0 
  1  3  3  0  0  0  0 
  2  4  1  0  0  0  0 
M  END
> <Name>
IODOACETONITRILE

> <Source>
NIH3DMolFile

> <Tox>
185

> <CAS>
624-75-9

$$$$

  CDK

  4  3  0  0  0  0  0  0  0  0999 V2000
    1.7489    0.4997    0.0000 N   0  0  0  0  0  0  0  0  0  0  0  0
    0.8495    0.0000    0.0000 C   0  0  0  0  0  0  0  0  0  0  0  0
    2.5984    0.0000    0.0000 C   0  0  0  0  0  0  0  0  0  0  0  0
    0.0000    0.4997    0.0000 C   0  0  0  0  0  0  0  0  0  0  0  0
  1  2  1  0  0  0  0 
  1  3  1  0  0  0  0 
  2  4  1  0  0  0  0 
M  END
> <Name>
METHYLETHYLAMINE

> <Source>
NIST2DMolFile

> <Tox>
36.5

> <CAS>
624-78-2

$$$$

  CDK

  4  3  0  0  0  0  0  0  0  0999 V2000
    1.9104    2.4836    2.1996 S   0  0  0  0  0  0  0  0  0  0  0  0
    3.6346    2.1691    1.7059 C   0  0  0  0  0  0  0  0  0  0  0  0
    1.0524    2.6341    0.6232 C   0  0  0  0  0  0  0  0  0  0  0  0
    3.8828    0.8059    1.1105 C   0  0  0  0  0  0  0  0  0  0  0  0
  1  2  1  0  0  0  0 
  1  3  1  0  0  0  0 
  2  4  1  0  0  0  0 
M  END
> <Name>
ETHYL METHYL SULFIDE

> <Source>
NIST3DMolFile

> <Tox>
66.7

> <CAS>
624-89-5

$$$$

  CDK

  4  3  0  0  0  0  0  0  0  0999 V2000
    1.1513   -0.6638    0.0000 S   0  0  0  0  0  0  0  0  0  0  0  0
    0.0000   -0.0000    0.0000 C   0  0  0  0  0  0  0  0  0  0  0  0
    2.3061   -0.0000    0.0000 S   0  0  0  0  0  0  0  0  0  0  0  0
    3.4575   -0.6638    0.0000 C   0  0  0  0  0  0  0  0  0  0  0  0
  1  2  1  0  0  0  0 
  1  3  1  0  0  0  0 
  3  4  1  0  0  0  0 
M  END
> <Name>
DIMETHYLDISULFIDE

> <Source>
DSSTox2DMolFile

> <Tox>
109.8

> <CAS>
624-92-0

$$$$

  CDK

  7  6  0  0  0  0  0  0  0  0999 V2000
   -1.2436    1.6279    0.4279 Cl  0  0  0  0  0  0  0  0  0  0  0  0
   -0.9395   -0.0959    0.0040 C   0  0  0  0  0  0  0  0  0  0  0  0
    0.5178   -0.4747    0.3567 C   0  0  0  0  0  0  0  0  0  0  0  0
   -1.2441   -0.2855   -1.4853 C   0  0  0  0  0  0  0  0  0  0  0  0
   -1.9020   -0.9551    0.8352 C   0  0  0  0  0  0  0  0  0  0  0  0
    1.5969    0.3592   -0.3320 C   0  0  0  0  0  0  0  0  0  0  0  0
    3.2145   -0.1759    0.1936 Cl  0  0  0  0  0  0  0  0  0  0  0  0
  1  2  1  0  0  0  0 
  2  3  1  0  0  0  0 
  2  4  1  0  0  0  0 
  2  5  1  0  0  0  0 
  3  6  1  0  0  0  0 
  7  6  1  0  0  0  0 
M  END
> <Name>
BUTANE, 1,3-DICHLORO-3-METHYL-

> <Source>
Chemidplus3DMolFile

> <Tox>
146.7

> <CAS>
624-96-4

$$$$

  CDK

  6  5  0  0  0  0  0  0  0  0999 V2000
    2.9352    2.8860    2.1503 C   0  0  0  0  0  0  0  0  0  0  0  0
    3.9540    2.0146    2.1503 C   0  0  0  0  0  0  0  0  0  0  0  0
    1.4983    2.4962    2.1503 C   0  0  0  0  0  0  0  0  0  0  0  0
    5.3663    2.4795    2.1654 C   0  0  0  0  0  0  0  0  0  0  0  0
    3.7527    0.5417    2.1383 C   0  0  0  0  0  0  0  0  0  0  0  0
    1.0645    1.9477    0.8065 C   0  0  0  0  0  0  0  0  0  0  0  0
  1  2  2  0  0  0  0 
  1  3  1  0  0  0  0 
  2  4  1  0  0  0  0 
  2  5  1  0  0  0  0 
  3  6  1  0  0  0  0 
M  END
> <Name>
2-METHYL-2-PENTENE

> <Source>
NIST3DMolFile

> <Tox>
67.3

> <CAS>
625-27-4

$$$$

  CDK

  6  5  0  0  0  0  0  0  0  0999 V2000
    0.0000    0.0000    0.0000 C   0  0  0  0  0  0  0  0  0  0  0  0
    0.8944    0.4969    0.0000 C   0  0  0  0  0  0  0  0  0  0  0  0
    1.7391    0.0000    0.0000 N   0  0  0  0  0  0  0  0  0  0  0  0
    0.8944    1.4906    0.0000 O   0  0  0  0  0  0  0  0  0  0  0  0
    2.5838    0.4969    0.0000 C   0  0  0  0  0  0  0  0  0  0  0  0
    3.4781    0.0000    0.0000 C   0  0  0  0  0  0  0  0  0  0  0  0
  1  2  1  0  0  0  0 
  2  3  1  0  0  0  0 
  2  4  2  0  0  0  0 
  3  5  1  0  0  0  0 
  5  6  1  0  0  0  0 
M  END
> <Name>
Acetamide, N-ethyl-

> <Source>
NIST2DMolFile

> <Tox>
205

> <CAS>
625-50-3

$$$$

  CDK

  6  5  0  0  0  0  0  0  0  0999 V2000
    5.6852    1.6042    2.3832 C   0  0  0  0  0  0  0  0  0  0  0  0
    4.2131    1.9004    2.2708 C   0  0  0  0  0  0  0  0  0  0  0  0
    3.7756    3.0296    2.2026 O   0  0  0  0  0  0  0  0  0  0  0  0
    3.2498    0.3655    2.2627 S   0  0  0  0  0  0  0  0  0  0  0  0
    1.5021    0.8538    2.0880 C   0  0  0  0  0  0  0  0  0  0  0  0
    1.0781    1.1436    0.6705 C   0  0  0  0  0  0  0  0  0  0  0  0
  1  2  1  0  0  0  0 
  2  3  2  0  0  0  0 
  2  4  1  0  0  0  0 
  4  5  1  0  0  0  0 
  5  6  1  0  0  0  0 
M  END
> <Name>
Ethanethioic acid, S-ethyl ester

> <Source>
NIST3DMolFile

> <Tox>
116.4

> <CAS>
625-60-5

$$$$

  CDK

  7  6  0  0  0  0  0  0  0  0999 V2000
    1.7409    1.4922    0.0000 C   0  0  0  0  0  0  0  0  0  0  0  0
    0.8953    0.9948    0.0000 C   0  0  0  0  0  0  0  0  0  0  0  0
    2.5864    0.9948    0.0000 C   0  0  0  0  0  0  0  0  0  0  0  0
    0.8953    0.0000    0.0000 C   0  0  0  0  0  0  0  0  0  0  0  0
    0.0000    1.4922    0.0000 C   0  0  0  0  0  0  0  0  0  0  0  0
    2.5864    0.0000    0.0000 Cl  0  0  0  0  0  0  0  0  0  0  0  0
    3.4818    1.4922    0.0000 Cl  0  0  0  0  0  0  0  0  0  0  0  0
  1  2  1  0  0  0  0 
  1  3  1  0  0  0  0 
  2  4  1  0  0  0  0 
  2  5  1  0  0  0  0 
  3  6  1  0  0  0  0 
  3  7  1  0  0  0  0 
M  END
> <Name>
BUTANE, 1,1-DICHLORO-3-METHYL-

> <Source>
NIST2DMolFile

> <Tox>
130

> <CAS>
625-66-1

$$$$

  CDK

  8  8  0  0  0  0  0  0  0  0999 V2000
    0.4336    0.2536    0.0000 C   0  0  0  0  0  0  0  0  0  0  0  0
    1.3021   -0.8183   -0.0003 C   0  0  0  0  0  0  0  0  0  0  0  0
    0.8460    1.5726    0.0003 C   0  0  0  0  0  0  0  0  0  0  0  0
   -1.5023   -0.1162    0.0000 I   0  0  0  0  0  0  0  0  0  0  0  0
    2.6765   -0.5552   -0.0005 C   0  0  0  0  0  0  0  0  0  0  0  0
    2.2157    1.8255    0.0001 C   0  0  0  0  0  0  0  0  0  0  0  0
    3.1225    0.7687   -0.0003 C   0  0  0  0  0  0  0  0  0  0  0  0
    3.6411   -1.6843    0.0004 C   0  0  0  0  0  0  0  0  0  0  0  0
  1  2  1  0  0  0  0 
  1  3  2  0  0  0  0 
  1  4  1  0  0  0  0 
  2  5  2  0  0  0  0 
  6  3  1  0  0  0  0 
  5  7  1  0  0  0  0 
  5  8  1  0  0  0  0 
  7  6  2  0  0  0  0 
M  END
> <Name>
Benzene, 1-iodo-3-methyl-

> <Source>
DougDB3DMolFile

> <Tox>
213

> <CAS>
625-95-6

$$$$

  CDK

  8  8  0  0  0  0  0  0  0  0999 V2000
    1.5156    2.6271    0.0000 C   0  0  0  0  0  0  0  0  0  0  0  0
    1.0104    1.7177    0.0000 C   0  0  0  0  0  0  0  0  0  0  0  0
    2.4755    2.6271    0.0000 C   0  0  0  0  0  0  0  0  0  0  0  0
    1.5156    0.8588    0.0000 C   0  0  0  0  0  0  0  0  0  0  0  0
    0.0000    1.7177    0.0000 Cl  0  0  0  0  0  0  0  0  0  0  0  0
    2.9807    1.7177    0.0000 C   0  0  0  0  0  0  0  0  0  0  0  0
    2.4755    0.8588    0.0000 C   0  0  0  0  0  0  0  0  0  0  0  0
    2.9807    0.0000    0.0000 F   0  0  0  0  0  0  0  0  0  0  0  0
  1  2  2  0  0  0  0 
  3  1  1  0  0  0  0 
  2  4  1  0  0  0  0 
  2  5  1  0  0  0  0 
  6  3  2  0  0  0  0 
  4  7  2  0  0  0  0 
  7  6  1  0  0  0  0 
  7  8  1  0  0  0  0 
M  END
> <Name>
M-CHLOROFLUOROBENZENE

> <Source>
NIST2DMolFile

> <Tox>
127.6

> <CAS>
625-98-9

$$$$

  CDK

 17 16  0  0  0  0  0  0  0  0999 V2000
    6.0577    1.5019    0.0000 O   0  0  0  0  0  0  0  0  0  0  0  0
    5.2066    1.0013    0.0000 C   0  0  0  0  0  0  0  0  0  0  0  0
    6.9087    1.0013    0.0000 C   0  0  0  0  0  0  0  0  0  0  0  0
    4.3054    1.5019    0.0000 C   0  0  0  0  0  0  0  0  0  0  0  0
    5.2066    0.0000    0.0000 O   0  0  0  0  0  0  0  0  0  0  0  0
    7.8099    1.5019    0.0000 C   0  0  0  0  0  0  0  0  0  0  0  0
    6.9087    0.0000    0.0000 O   0  0  0  0  0  0  0  0  0  0  0  0
    3.4544    1.0013    0.0000 C   0  0  0  0  0  0  0  0  0  0  0  0
    8.6609    1.0013    0.0000 C   0  0  0  0  0  0  0  0  0  0  0  0
    2.6033    1.5019    0.0000 C   0  0  0  0  0  0  0  0  0  0  0  0
    9.5120    1.5019    0.0000 C   0  0  0  0  0  0  0  0  0  0  0  0
    1.7021    1.0013    0.0000 C   0  0  0  0  0  0  0  0  0  0  0  0
   10.4132    1.0013    0.0000 C   0  0  0  0  0  0  0  0  0  0  0  0
    0.8511    1.5019    0.0000 C   0  0  0  0  0  0  0  0  0  0  0  0
   11.2642    1.5019    0.0000 C   0  0  0  0  0  0  0  0  0  0  0  0
    0.0000    1.0013    0.0000 C   0  0  0  0  0  0  0  0  0  0  0  0
   12.1153    1.0013    0.0000 C   0  0  0  0  0  0  0  0  0  0  0  0
  1  2  1  0  0  0  0 
  1  3  1  0  0  0  0 
  2  4  1  0  0  0  0 
  2  5  2  0  0  0  0 
  3  6  1  0  0  0  0 
  3  7  2  0  0  0  0 
  4  8  1  0  0  0  0 
  6  9  1  0  0  0  0 
  8 10  1  0  0  0  0 
  9 11  1  0  0  0  0 
 10 12  1  0  0  0  0 
 11 13  1  0  0  0  0 
 12 14  1  0  0  0  0 
 13 15  1  0  0  0  0 
 14 16  1  0  0  0  0 
 15 17  1  0  0  0  0 
M  END
> <Name>
Heptanoic acid, anhydride

> <Source>
NIST2DMolFile

> <Tox>
269.5

> <CAS>
626-27-7

$$$$

  CDK

  9  8  0  0  0  0  0  0  0  0999 V2000
    3.4484    1.4993    0.0000 C   0  0  0  0  0  0  0  0  0  0  0  0
    2.5988    0.9995    0.0000 C   0  0  0  0  0  0  0  0  0  0  0  0
    4.3480    0.9995    0.0000 C   0  0  0  0  0  0  0  0  0  0  0  0
    1.7492    1.4993    0.0000 C   0  0  0  0  0  0  0  0  0  0  0  0
    2.5988    0.0000    0.0000 O   0  0  0  0  0  0  0  0  0  0  0  0
    4.3480    0.0000    0.0000 C   0  0  0  0  0  0  0  0  0  0  0  0
    5.1976    1.4993    0.0000 C   0  0  0  0  0  0  0  0  0  0  0  0
    0.8496    0.9995    0.0000 C   0  0  0  0  0  0  0  0  0  0  0  0
    0.0000    1.4993    0.0000 C   0  0  0  0  0  0  0  0  0  0  0  0
  1  2  1  0  0  0  0 
  1  3  1  0  0  0  0 
  2  4  1  0  0  0  0 
  2  5  2  0  0  0  0 
  3  6  1  0  0  0  0 
  3  7  1  0  0  0  0 
  4  8  1  0  0  0  0 
  8  9  1  0  0  0  0 
M  END
> <Name>
4-Heptanone, 2-methyl-

> <Source>
NIST2DMolFile

> <Tox>
155

> <CAS>
626-33-5

$$$$

  CDK

  7  7  0  0  0  0  0  0  0  0999 V2000
    0.0000    1.9760    0.0000 C   0  0  0  0  0  0  0  0  0  0  0  0
    0.8840    1.4560    0.0000 C   0  0  0  0  0  0  0  0  0  0  0  0
    1.7680    1.9760    0.0000 C   0  0  0  0  0  0  0  0  0  0  0  0
    0.8840    0.5200    0.0000 C   0  0  0  0  0  0  0  0  0  0  0  0
    2.6520    1.4560    0.0000 C   0  0  0  0  0  0  0  0  0  0  0  0
    1.7680    0.0000    0.0000 C   0  0  0  0  0  0  0  0  0  0  0  0
    2.6520    0.5200    0.0000 N   0  0  0  0  0  0  0  0  0  0  0  0
  1  2  1  0  0  0  0 
  2  3  1  0  0  0  0 
  4  2  1  0  0  0  0 
  3  5  1  0  0  0  0 
  6  4  1  0  0  0  0 
  5  7  1  0  0  0  0 
  7  6  1  0  0  0  0 
M  END
> <Name>
Piperidine, 4-methyl-

> <Source>
NIST2DMolFile

> <Tox>
130

> <CAS>
626-58-4

$$$$

  CDK

  7  7  0  0  0  0  0  0  0  0999 V2000
    0.0000    0.8568    0.0000 Cl  0  0  0  0  0  0  0  0  0  0  0  0
    1.0080    0.8568    0.0000 C   0  0  0  0  0  0  0  0  0  0  0  0
    1.5120    0.0000    0.0000 C   0  0  0  0  0  0  0  0  0  0  0  0
    1.5120    1.7136    0.0000 C   0  0  0  0  0  0  0  0  0  0  0  0
    2.5199    0.0000    0.0000 C   0  0  0  0  0  0  0  0  0  0  0  0
    2.5199    1.7136    0.0000 C   0  0  0  0  0  0  0  0  0  0  0  0
    3.0239    0.8568    0.0000 N   0  0  0  0  0  0  0  0  0  0  0  0
  1  2  1  0  0  0  0 
  2  3  2  0  0  0  0 
  4  2  1  0  0  0  0 
  3  5  1  0  0  0  0 
  6  4  2  0  0  0  0 
  5  7  2  0  0  0  0 
  7  6  1  0  0  0  0 
M  END
> <Name>
4-CHLOROPYRIDINE

> <Source>
NIST2DMolFile

> <Tox>
147.5

> <CAS>
626-61-9

$$$$

  CDK

 12 11  0  0  0  0  0  0  0  0999 V2000
   -0.0009    0.9316   -0.4904 S   0  0  0  0  0  0  0  0  0  0  0  0
    1.2131   -0.1090   -0.2823 O   0  0  0  0  0  0  0  0  0  0  0  0
   -1.2137   -0.1075   -0.2692 O   0  0  0  0  0  0  0  0  0  0  0  0
    0.0058    1.8790    0.6738 O   0  0  0  0  0  0  0  0  0  0  0  0
    2.5020    0.4853   -0.2142 C   0  0  0  0  0  0  0  0  0  0  0  0
   -2.5010    0.4882   -0.1874 C   0  0  0  0  0  0  0  0  0  0  0  0
    3.5393   -0.6111   -0.0177 C   0  0  0  0  0  0  0  0  0  0  0  0
   -3.5374   -0.6069    0.0204 C   0  0  0  0  0  0  0  0  0  0  0  0
    4.9511   -0.0402    0.0801 C   0  0  0  0  0  0  0  0  0  0  0  0
   -4.9508   -0.0372    0.1015 C   0  0  0  0  0  0  0  0  0  0  0  0
    5.9792   -1.1343    0.3195 C   0  0  0  0  0  0  0  0  0  0  0  0
   -5.9866   -1.1377    0.2658 C   0  0  0  0  0  0  0  0  0  0  0  0
  1  2  1  0  0  0  0 
  1  3  1  0  0  0  0 
  1  4  2  0  0  0  0 
  2  5  1  0  0  0  0 
  3  6  1  0  0  0  0 
  7  5  1  0  0  0  0 
  8  6  1  0  0  0  0 
  7  9  1  0  0  0  0 
  8 10  1  0  0  0  0 
  9 11  1  0  0  0  0 
 10 12  1  0  0  0  0 
M  END
> <Name>
Sulfurous acid, dibutyl ester

> <Source>
Chemidplus3DMolFile

> <Tox>
230

> <CAS>
626-85-7

$$$$

  CDK

  7  6  0  0  0  0  0  0  0  0999 V2000
    2.7514    0.9018   -0.0924 C   0  0  0  0  0  0  0  0  0  0  0  0
    1.5708   -0.0386   -0.3362 C   0  0  0  0  0  0  0  0  0  0  0  0
    0.2847    0.5432    0.2668 C   0  0  0  0  0  0  0  0  0  0  0  0
    1.7818   -1.3025    0.2696 O   0  0  0  0  0  0  0  0  0  0  0  0
   -0.9602   -0.1540   -0.2571 C   0  0  0  0  0  0  0  0  0  0  0  0
   -2.2221    0.4559    0.3331 C   0  0  0  0  0  0  0  0  0  0  0  0
   -3.4639   -0.2324   -0.1869 C   0  0  0  0  0  0  0  0  0  0  0  0
  1  2  1  0  0  0  0 
  2  3  1  0  0  0  0 
  2  4  1  0  0  0  0 
  3  5  1  0  0  0  0 
  5  6  1  0  0  0  0 
  6  7  1  0  0  0  0 
M  END
> <Name>
2-HEXANOL

> <Source>
DougDB3DMolFile

> <Tox>
136

> <CAS>
626-93-7

$$$$

  CDK

  7  6  0  0  0  0  0  0  0  0999 V2000
    2.6112    1.5065    0.0000 C   0  0  0  0  0  0  0  0  0  0  0  0
    3.4649    1.0043    0.0000 C   0  0  0  0  0  0  0  0  0  0  0  0
    1.7073    1.0043    0.0000 O   0  0  0  0  0  0  0  0  0  0  0  0
    3.4649    0.0000    0.0000 C   0  0  0  0  0  0  0  0  0  0  0  0
    4.3186    1.5065    0.0000 C   0  0  0  0  0  0  0  0  0  0  0  0
    0.8537    1.5065    0.0000 C   0  0  0  0  0  0  0  0  0  0  0  0
    0.0000    1.0043    0.0000 C   0  0  0  0  0  0  0  0  0  0  0  0
  1  2  1  0  0  0  0 
  1  3  1  0  0  0  0 
  2  4  1  0  0  0  0 
  2  5  1  0  0  0  0 
  3  6  1  0  0  0  0 
  6  7  1  0  0  0  0 
M  END
> <Name>
PROPANE, 1-ETHOXY-2-METHYL-

> <Source>
NIST2DMolFile

> <Tox>
81

> <CAS>
627-02-1

$$$$

  CDK

  7  6  0  0  0  0  0  0  0  0999 V2000
    1.7073    1.5065    0.0000 O   0  0  0  0  0  0  0  0  0  0  0  0
    0.8537    1.0043    0.0000 C   0  0  0  0  0  0  0  0  0  0  0  0
    2.6112    1.0043    0.0000 C   0  0  0  0  0  0  0  0  0  0  0  0
    0.8537    0.0000    0.0000 Cl  0  0  0  0  0  0  0  0  0  0  0  0
    0.0000    1.5065    0.0000 O   0  0  0  0  0  0  0  0  0  0  0  0
    3.4649    1.5065    0.0000 C   0  0  0  0  0  0  0  0  0  0  0  0
    4.3186    1.0043    0.0000 Cl  0  0  0  0  0  0  0  0  0  0  0  0
  1  2  1  0  0  0  0 
  1  3  1  0  0  0  0 
  2  4  1  0  0  0  0 
  2  5  2  0  0  0  0 
  3  6  1  0  0  0  0 
  6  7  1  0  0  0  0 
M  END
> <Name>
CHLOROETHYL CHLOROFORMATE

> <Source>
NIST2DMolFile

> <Tox>
155

> <CAS>
627-11-2

$$$$

  CDK

  8  7  0  0  0  0  0  0  0  0999 V2000
    3.3590    2.1579    1.5753 C   0  0  0  0  0  0  0  0  0  0  0  0
    4.5684    1.7224    2.3902 C   0  0  0  0  0  0  0  0  0  0  0  0
    2.0833    1.4451    1.8899 C   0  0  0  0  0  0  0  0  0  0  0  0
    5.7785    2.5143    2.0022 C   0  0  0  0  0  0  0  0  0  0  0  0
    0.9200    1.8884    1.0702 C   0  0  0  0  0  0  0  0  0  0  0  0
    1.9499    0.4923    2.8119 C   0  0  0  0  0  0  0  0  0  0  0  0
    5.9626    3.8171    2.6939 C   0  0  0  0  0  0  0  0  0  0  0  0
    6.6425    2.0679    1.0908 C   0  0  0  0  0  0  0  0  0  0  0  0
  1  2  1  0  0  0  0 
  1  3  1  0  0  0  0 
  2  4  1  0  0  0  0 
  3  5  1  0  0  0  0 
  3  6  2  0  0  0  0 
  4  7  1  0  0  0  0 
  4  8  2  0  0  0  0 
M  END
> <Name>
2,5-DIMETHYL-1,5-HEXADIENE

> <Source>
NIST3DMolFile

> <Tox>
114.3

> <CAS>
627-58-7

$$$$

  CDK

  8  7  0  0  0  0  0  0  0  0999 V2000
    5.7539   -1.3292    0.0000 Cl  0  0  0  0  0  0  0  0  0  0  0  0
    4.6031   -1.9966    0.0000 C   0  0  0  0  0  0  0  0  0  0  0  0
    3.4524   -1.3292    0.0000 C   0  0  0  0  0  0  0  0  0  0  0  0
    4.6031   -3.3258    0.0000 O   0  0  0  0  0  0  0  0  0  0  0  0
    2.3016   -1.9966    0.0000 C   0  0  0  0  0  0  0  0  0  0  0  0
    1.1508   -1.3292    0.0000 C   0  0  0  0  0  0  0  0  0  0  0  0
    0.0000   -1.9966    0.0000 Cl  0  0  0  0  0  0  0  0  0  0  0  0
    1.1508   -0.0000    0.0000 O   0  0  0  0  0  0  0  0  0  0  0  0
  1  2  1  0  0  0  0 
  2  3  1  0  0  0  0 
  2  4  2  0  0  0  0 
  5  3  2  0  0  0  0 
  6  5  1  0  0  0  0 
  7  6  1  0  0  0  0 
  6  8  2  0  0  0  0 
M  END
> <Name>
FUMARYL CHLORIDE

> <Source>
DSSTox2DMolFile

> <Tox>
159

> <CAS>
627-63-4

$$$$

  CDK

  6  5  0  0  0  0  0  0  0  0999 V2000
    2.2548    1.9822    1.5881 C   0  0  0  0  0  0  0  0  0  0  0  0
    1.0972    1.3579    2.1085 O   0  0  0  0  0  0  0  0  0  0  0  0
    3.5314    1.1732    1.8120 C   0  0  0  0  0  0  0  0  0  0  0  0
    0.9521    1.4378    3.5038 C   0  0  0  0  0  0  0  0  0  0  0  0
    4.7021    1.8116    1.0837 C   0  0  0  0  0  0  0  0  0  0  0  0
    5.9797    1.0327    1.3010 C   0  0  0  0  0  0  0  0  0  0  0  0
  1  2  1  0  0  0  0 
  1  3  1  0  0  0  0 
  2  4  1  0  0  0  0 
  3  5  1  0  0  0  0 
  5  6  1  0  0  0  0 
M  END
> <Name>
METHYL N-BUTYL ETHER

> <Source>
NIST3DMolFile

> <Tox>
70.1

> <CAS>
628-28-4

$$$$

  CDK

  9  8  0  0  0  0  0  0  0  0999 V2000
    1.7492    1.4993    0.0000 C   0  0  0  0  0  0  0  0  0  0  0  0
    2.5988    0.9995    0.0000 O   0  0  0  0  0  0  0  0  0  0  0  0
    0.8496    0.9995    0.0000 C   0  0  0  0  0  0  0  0  0  0  0  0
    3.4484    1.4993    0.0000 C   0  0  0  0  0  0  0  0  0  0  0  0
    0.8496    0.0000    0.0000 C   0  0  0  0  0  0  0  0  0  0  0  0
    0.0000    1.4993    0.0000 C   0  0  0  0  0  0  0  0  0  0  0  0
    4.3480    0.9995    0.0000 C   0  0  0  0  0  0  0  0  0  0  0  0
    4.3480    0.0000    0.0000 C   0  0  0  0  0  0  0  0  0  0  0  0
    5.1976    1.4993    0.0000 C   0  0  0  0  0  0  0  0  0  0  0  0
  1  2  1  0  0  0  0 
  1  3  1  0  0  0  0 
  2  4  1  0  0  0  0 
  3  5  1  0  0  0  0 
  3  6  1  0  0  0  0 
  4  7  1  0  0  0  0 
  7  8  1  0  0  0  0 
  7  9  1  0  0  0  0 
M  END
> <Name>
DI-ISOBUTYL ETHER

> <Source>
NIST2DMolFile

> <Tox>
123

> <CAS>
628-55-7

$$$$

  CDK

  9  8  0  0  0  0  0  0  0  0999 V2000
    1.1483   -0.6745    0.0000 C   0  0  0  0  0  0  0  0  0  0  0  0
    1.1483   -1.9994    0.0000 O   0  0  0  0  0  0  0  0  0  0  0  0
    2.2965   -0.0000    0.0000 O   0  0  0  0  0  0  0  0  0  0  0  0
    0.0000   -0.0000    0.0000 C   0  0  0  0  0  0  0  0  0  0  0  0
    3.4448   -0.6745    0.0000 C   0  0  0  0  0  0  0  0  0  0  0  0
    4.5850   -0.0000    0.0000 C   0  0  0  0  0  0  0  0  0  0  0  0
    5.7333   -0.6745    0.0000 C   0  0  0  0  0  0  0  0  0  0  0  0
    6.8815   -0.0000    0.0000 C   0  0  0  0  0  0  0  0  0  0  0  0
    8.0298   -0.6745    0.0000 C   0  0  0  0  0  0  0  0  0  0  0  0
  1  2  2  0  0  0  0 
  1  3  1  0  0  0  0 
  1  4  1  0  0  0  0 
  3  5  1  0  0  0  0 
  5  6  1  0  0  0  0 
  6  7  1  0  0  0  0 
  7  8  1  0  0  0  0 
  8  9  1  0  0  0  0 
M  END
> <Name>
N-AMYL ACETATE

> <Source>
DSSTox2DMolFile

> <Tox>
149.2

> <CAS>
628-63-7

$$$$

  CDK

  7  7  0  0  0  0  0  0  0  0999 V2000
    1.5641    0.9130    1.9118 C   0  0  0  0  0  0  0  0  0  0  0  0
    0.6701    2.1432    1.9118 C   0  0  0  0  0  0  0  0  0  0  0  0
    2.7424    1.0199    2.8666 C   0  0  0  0  0  0  0  0  0  0  0  0
    1.4252    3.4633    1.9118 C   0  0  0  0  0  0  0  0  0  0  0  0
    3.8923    1.7900    2.3221 C   0  0  0  0  0  0  0  0  0  0  0  0
    2.6098    3.4844    0.9593 C   0  0  0  0  0  0  0  0  0  0  0  0
    3.8357    2.8434    1.5057 C   0  0  0  0  0  0  0  0  0  0  0  0
  1  2  1  0  0  0  0 
  3  1  1  0  0  0  0 
  2  4  1  0  0  0  0 
  5  3  1  0  0  0  0 
  4  6  1  0  0  0  0 
  7  5  2  0  0  0  0 
  6  7  1  0  0  0  0 
M  END
> <Name>
CYCLOHEPTENE

> <Source>
NIST3DMolFile

> <Tox>
115

> <CAS>
628-92-2

$$$$

  CDK

 10  9  0  0  0  0  0  0  0  0999 V2000
    3.4592    1.5040    0.0000 C   0  0  0  0  0  0  0  0  0  0  0  0
    2.6069    1.0027    0.0000 C   0  0  0  0  0  0  0  0  0  0  0  0
    4.3115    1.0027    0.0000 C   0  0  0  0  0  0  0  0  0  0  0  0
    1.7045    1.5040    0.0000 C   0  0  0  0  0  0  0  0  0  0  0  0
    5.2139    1.5040    0.0000 C   0  0  0  0  0  0  0  0  0  0  0  0
    0.8523    1.0027    0.0000 C   0  0  0  0  0  0  0  0  0  0  0  0
    6.0661    1.0027    0.0000 C   0  0  0  0  0  0  0  0  0  0  0  0
    0.8523    0.0000    0.0000 C   0  0  0  0  0  0  0  0  0  0  0  0
    0.0000    1.5040    0.0000 O   0  0  0  0  0  0  0  0  0  0  0  0
    6.9184    1.5040    0.0000 C   0  0  0  0  0  0  0  0  0  0  0  0
  1  2  1  0  0  0  0 
  1  3  1  0  0  0  0 
  2  4  1  0  0  0  0 
  3  5  1  0  0  0  0 
  4  6  1  0  0  0  0 
  5  7  1  0  0  0  0 
  6  8  1  0  0  0  0 
  6  9  1  0  0  0  0 
  7 10  1  0  0  0  0 
M  END
> <Name>
2-NONANOL

> <Source>
NIST2DMolFile

> <Tox>
193.5

> <CAS>
628-99-9

$$$$

  CDK

  8  7  0  0  0  0  0  0  0  0999 V2000
    8.0744   -0.0000    0.0000 Br  0  0  0  0  0  0  0  0  0  0  0  0
    6.9197   -0.6621    0.0000 C   0  0  0  0  0  0  0  0  0  0  0  0
    5.7651   -0.0000    0.0000 C   0  0  0  0  0  0  0  0  0  0  0  0
    4.6105   -0.6621    0.0000 C   0  0  0  0  0  0  0  0  0  0  0  0
    3.4639   -0.0000    0.0000 C   0  0  0  0  0  0  0  0  0  0  0  0
    2.3093   -0.6621    0.0000 C   0  0  0  0  0  0  0  0  0  0  0  0
    1.1546   -0.0000    0.0000 C   0  0  0  0  0  0  0  0  0  0  0  0
    0.0000   -0.6621    0.0000 C   0  0  0  0  0  0  0  0  0  0  0  0
  1  2  1  0  0  0  0 
  2  3  1  0  0  0  0 
  3  4  1  0  0  0  0 
  4  5  1  0  0  0  0 
  5  6  1  0  0  0  0 
  6  7  1  0  0  0  0 
  7  8  1  0  0  0  0 
M  END
> <Name>
1-BROMOHEPTANE

> <Source>
DSSTox2DMolFile

> <Tox>
179

> <CAS>
629-04-9

$$$$

  CDK

  8  7  0  0  0  0  0  0  0  0999 V2000
    5.4803    1.3098    0.7532 C   0  0  0  0  0  0  0  0  0  0  0  0
    4.0922    0.7916    1.0986 C   0  0  0  0  0  0  0  0  0  0  0  0
    6.2003    1.8195    1.9980 C   0  0  0  0  0  0  0  0  0  0  0  0
    3.1847    1.9110    1.5859 C   0  0  0  0  0  0  0  0  0  0  0  0
    7.4252    2.4983    1.6675 C   0  0  0  0  0  0  0  0  0  0  0  0
    1.8571    1.3767    2.0955 C   0  0  0  0  0  0  0  0  0  0  0  0
    8.4413    3.0593    1.3990 C   0  0  0  0  0  0  0  0  0  0  0  0
    0.9557    2.4948    2.5683 C   0  0  0  0  0  0  0  0  0  0  0  0
  1  2  1  0  0  0  0 
  1  3  1  0  0  0  0 
  2  4  1  0  0  0  0 
  3  5  1  0  0  0  0 
  4  6  1  0  0  0  0 
  5  7  3  0  0  0  0 
  6  8  1  0  0  0  0 
M  END
> <Name>
1-OCTYNE

> <Source>
NIST3DMolFile

> <Tox>
126.3

> <CAS>
629-05-0

$$$$

  CDK

  8  7  0  0  0  0  0  0  0  0999 V2000
    0.0000    0.0000    0.0000 C   0  0  0  0  0  0  0  0  0  0  0  0
    0.8532    0.5019    0.0000 C   0  0  0  0  0  0  0  0  0  0  0  0
    1.7567    0.0000    0.0000 C   0  0  0  0  0  0  0  0  0  0  0  0
    2.6099    0.5019    0.0000 C   0  0  0  0  0  0  0  0  0  0  0  0
    3.4130    0.0000    0.0000 C   0  0  0  0  0  0  0  0  0  0  0  0
    4.3164    0.5019    0.0000 C   0  0  0  0  0  0  0  0  0  0  0  0
    5.1696    0.0000    0.0000 C   0  0  0  0  0  0  0  0  0  0  0  0
    6.0229    0.5521    0.0000 Cl  0  0  0  0  0  0  0  0  0  0  0  0
  1  2  1  0  0  0  0 
  2  3  1  0  0  0  0 
  3  4  1  0  0  0  0 
  4  5  1  0  0  0  0 
  5  6  1  0  0  0  0 
  6  7  1  0  0  0  0 
  7  8  1  0  0  0  0 
M  END
> <Name>
1-CHLOROHEPTANE

> <Source>
NIST2DMolFile

> <Tox>
159

> <CAS>
629-06-1

$$$$

  CDK

  8  7  0  0  0  0  0  0  0  0999 V2000
    5.7651   -0.0000    0.0000 O   0  0  0  0  0  0  0  0  0  0  0  0
    4.6105   -0.6621    0.0000 C   0  0  0  0  0  0  0  0  0  0  0  0
    6.9197   -0.6621    0.0000 C   0  0  0  0  0  0  0  0  0  0  0  0
    3.4639   -0.0000    0.0000 C   0  0  0  0  0  0  0  0  0  0  0  0
    8.0744   -0.0000    0.0000 C   0  0  0  0  0  0  0  0  0  0  0  0
    2.3093   -0.6621    0.0000 O   0  0  0  0  0  0  0  0  0  0  0  0
    1.1546   -0.0000    0.0000 C   0  0  0  0  0  0  0  0  0  0  0  0
    0.0000   -0.6621    0.0000 C   0  0  0  0  0  0  0  0  0  0  0  0
  1  2  1  0  0  0  0 
  1  3  1  0  0  0  0 
  2  4  1  0  0  0  0 
  3  5  1  0  0  0  0 
  4  6  1  0  0  0  0 
  6  7  1  0  0  0  0 
  7  8  1  0  0  0  0 
M  END
> <Name>
1,2-DIETHOXYETHANE

> <Source>
DSSTox2DMolFile

> <Tox>
119.4

> <CAS>
629-14-1

$$$$

  CDK

 11 10  0  0  0  0  0  0  0  0999 V2000
   -3.7320    0.3907   -0.0109 O   0  0  0  0  0  0  0  0  0  0  0  0
   -4.9136   -0.4016   -0.0319 N   0  0  0  0  0  0  0  0  0  0  0  0
   -2.6033   -0.4724   -0.0004 C   0  0  0  0  0  0  0  0  0  0  0  0
   -6.0054    0.3688   -0.0425 O   0  0  0  0  0  0  0  0  0  0  0  0
   -1.3375    0.3728    0.0221 C   0  0  0  0  0  0  0  0  0  0  0  0
   -0.0799   -0.4949    0.0184 C   0  0  0  0  0  0  0  0  0  0  0  0
    1.1855    0.3633    0.0830 C   0  0  0  0  0  0  0  0  0  0  0  0
    2.4791   -0.4561    0.0588 C   0  0  0  0  0  0  0  0  0  0  0  0
    3.7446    0.4040    0.0490 C   0  0  0  0  0  0  0  0  0  0  0  0
    5.0014   -0.4622   -0.0484 C   0  0  0  0  0  0  0  0  0  0  0  0
    6.2611    0.3877   -0.0972 C   0  0  0  0  0  0  0  0  0  0  0  0
  1  2  1  0  0  0  0 
  1  3  1  0  0  0  0 
  4  2  2  0  0  0  0 
  5  3  1  0  0  0  0 
  6  5  1  0  0  0  0 
  7  6  1  0  0  0  0 
  7  8  1  0  0  0  0 
  8  9  1  0  0  0  0 
  9 10  1  0  0  0  0 
 10 11  1  0  0  0  0 
M  END
> <Name>
Nitrous acid, octyl ester

> <Source>
Chemidplus3DMolFile

> <Tox>
174.5

> <CAS>
629-46-9

$$$$

  CDK

 13 12  0  0  0  0  0  0  0  0999 V2000
    0.0000   -0.6741    0.0000 C   0  0  0  0  0  0  0  0  0  0  0  0
    1.1557   -0.0000    0.0000 C   0  0  0  0  0  0  0  0  0  0  0  0
    2.2838   -0.6741    0.0000 C   0  0  0  0  0  0  0  0  0  0  0  0
    3.4257   -0.0000    0.0000 C   0  0  0  0  0  0  0  0  0  0  0  0
    4.5813   -0.6741    0.0000 C   0  0  0  0  0  0  0  0  0  0  0  0
    5.7232   -0.0000    0.0000 C   0  0  0  0  0  0  0  0  0  0  0  0
    6.8789   -0.6741    0.0000 C   0  0  0  0  0  0  0  0  0  0  0  0
    8.0345   -0.0000    0.0000 C   0  0  0  0  0  0  0  0  0  0  0  0
    9.1764   -0.6741    0.0000 C   0  0  0  0  0  0  0  0  0  0  0  0
   10.3321   -0.0000    0.0000 C   0  0  0  0  0  0  0  0  0  0  0  0
   11.4740   -0.6741    0.0000 C   0  0  0  0  0  0  0  0  0  0  0  0
   12.6021   -0.0000    0.0000 C   0  0  0  0  0  0  0  0  0  0  0  0
   13.7578   -0.6741    0.0000 C   0  0  0  0  0  0  0  0  0  0  0  0
  1  2  1  0  0  0  0 
  2  3  1  0  0  0  0 
  3  4  1  0  0  0  0 
  4  5  1  0  0  0  0 
  5  6  1  0  0  0  0 
  6  7  1  0  0  0  0 
  7  8  1  0  0  0  0 
  8  9  1  0  0  0  0 
  9 10  1  0  0  0  0 
 10 11  1  0  0  0  0 
 11 12  1  0  0  0  0 
 12 13  1  0  0  0  0 
M  END
> <Name>
N-TRIDECANE

> <Source>
DSSTox2DMolFile

> <Tox>
235.4

> <CAS>
629-50-5

$$$$

  CDK

 15 14  0  0  0  0  0  0  0  0999 V2000
    0.0001    0.2069    0.0000 O   0  0  0  0  0  0  0  0  0  0  0  0
    1.1750   -0.5924   -0.0017 C   0  0  0  0  0  0  0  0  0  0  0  0
   -1.1750   -0.5925    0.0017 C   0  0  0  0  0  0  0  0  0  0  0  0
    2.3920    0.3219   -0.0035 C   0  0  0  0  0  0  0  0  0  0  0  0
   -2.3920    0.3218    0.0035 C   0  0  0  0  0  0  0  0  0  0  0  0
    3.6959   -0.4746    0.0104 C   0  0  0  0  0  0  0  0  0  0  0  0
   -3.6959   -0.4746   -0.0104 C   0  0  0  0  0  0  0  0  0  0  0  0
    4.9116    0.4538    0.0510 C   0  0  0  0  0  0  0  0  0  0  0  0
   -4.9116    0.4538   -0.0511 C   0  0  0  0  0  0  0  0  0  0  0  0
    6.2485   -0.2931    0.0430 C   0  0  0  0  0  0  0  0  0  0  0  0
   -6.2486   -0.2931   -0.0430 C   0  0  0  0  0  0  0  0  0  0  0  0
    7.4634    0.6351    0.0092 C   0  0  0  0  0  0  0  0  0  0  0  0
   -7.4633    0.6351   -0.0091 C   0  0  0  0  0  0  0  0  0  0  0  0
    8.7615   -0.1540   -0.0704 C   0  0  0  0  0  0  0  0  0  0  0  0
   -8.7615   -0.1539    0.0703 C   0  0  0  0  0  0  0  0  0  0  0  0
  1  2  1  0  0  0  0 
  1  3  1  0  0  0  0 
  4  2  1  0  0  0  0 
  5  3  1  0  0  0  0 
  6  4  1  0  0  0  0 
  7  5  1  0  0  0  0 
  6  8  1  0  0  0  0 
  7  9  1  0  0  0  0 
  8 10  1  0  0  0  0 
  9 11  1  0  0  0  0 
 10 12  1  0  0  0  0 
 11 13  1  0  0  0  0 
 12 14  1  0  0  0  0 
 13 15  1  0  0  0  0 
M  END
> <Name>
Heptane, 1,1'-oxybis-

> <Source>
Chemidplus3DMolFile

> <Tox>
258.5

> <CAS>
629-64-1

$$$$

  CDK

 15 14  0  0  0  0  0  0  0  0999 V2000
   -0.0649    1.6854    0.0000 S   0  0  0  0  0  0  0  0  0  0  0  0
   -0.7629    1.2457    0.0000 C   0  0  0  0  0  0  0  0  0  0  0  0
    0.6649    1.3007    0.0000 C   0  0  0  0  0  0  0  0  0  0  0  0
   -1.4610    0.8061    0.0000 C   0  0  0  0  0  0  0  0  0  0  0  0
    1.3947    0.9160    0.0000 C   0  0  0  0  0  0  0  0  0  0  0  0
   -2.1591    0.3664    0.0000 C   0  0  0  0  0  0  0  0  0  0  0  0
    2.1246    0.5313    0.0000 C   0  0  0  0  0  0  0  0  0  0  0  0
   -2.8572   -0.0733    0.0000 C   0  0  0  0  0  0  0  0  0  0  0  0
    2.8544    0.1466    0.0000 C   0  0  0  0  0  0  0  0  0  0  0  0
   -3.5553   -0.5130    0.0000 C   0  0  0  0  0  0  0  0  0  0  0  0
    3.5842   -0.2382    0.0000 C   0  0  0  0  0  0  0  0  0  0  0  0
   -4.2533   -0.9526    0.0000 C   0  0  0  0  0  0  0  0  0  0  0  0
    4.3140   -0.6229    0.0000 C   0  0  0  0  0  0  0  0  0  0  0  0
   -4.9514   -1.3923    0.0000 C   0  0  0  0  0  0  0  0  0  0  0  0
    5.0438   -1.0076    0.0000 C   0  0  0  0  0  0  0  0  0  0  0  0
  1  2  1  0  0  0  0 
  1  3  1  0  0  0  0 
  2  4  1  0  0  0  0 
  3  5  1  0  0  0  0 
  4  6  1  0  0  0  0 
  5  7  1  0  0  0  0 
  6  8  1  0  0  0  0 
  7  9  1  0  0  0  0 
  8 10  1  0  0  0  0 
  9 11  1  0  0  0  0 
 10 12  1  0  0  0  0 
 11 13  1  0  0  0  0 
 12 14  1  0  0  0  0 
 13 15  1  0  0  0  0 
M  END
> <Name>
Heptane, 1,1'-thiobis-

> <Source>
Smiles

> <Tox>
298

> <CAS>
629-65-2

$$$$

  CDK

 18 17  0  0  0  0  0  0  0  0999 V2000
    0.9028    1.6430    1.7064 C   0  0  0  0  0  0  0  0  0  0  0  0
    2.1552    1.3626    0.9070 C   0  0  0  0  0  0  0  0  0  0  0  0
    3.4084    1.6012    1.7339 C   0  0  0  0  0  0  0  0  0  0  0  0
    4.6665    1.3203    0.9285 C   0  0  0  0  0  0  0  0  0  0  0  0
    5.9182    1.5560    1.7583 C   0  0  0  0  0  0  0  0  0  0  0  0
    7.1767    1.2774    0.9525 C   0  0  0  0  0  0  0  0  0  0  0  0
    8.4279    1.5101    1.7839 C   0  0  0  0  0  0  0  0  0  0  0  0
    9.6864    1.2322    0.9779 C   0  0  0  0  0  0  0  0  0  0  0  0
   10.9377    1.4629    1.8099 C   0  0  0  0  0  0  0  0  0  0  0  0
   12.1962    1.1866    1.0035 C   0  0  0  0  0  0  0  0  0  0  0  0
   13.4473    1.4148    1.8361 C   0  0  0  0  0  0  0  0  0  0  0  0
   14.7059    1.1405    1.0289 C   0  0  0  0  0  0  0  0  0  0  0  0
   15.9567    1.3651    1.8631 C   0  0  0  0  0  0  0  0  0  0  0  0
   17.2154    1.0920    1.0559 C   0  0  0  0  0  0  0  0  0  0  0  0
   18.4652    1.3141    1.8926 C   0  0  0  0  0  0  0  0  0  0  0  0
   19.7229    1.0397    1.0762 C   0  0  0  0  0  0  0  0  0  0  0  0
   20.9140    1.2418    1.8593 C   0  0  0  0  0  0  0  0  0  0  0  0
   21.9020    1.4075    2.5040 C   0  0  0  0  0  0  0  0  0  0  0  0
  1  2  1  0  0  0  0 
  2  3  1  0  0  0  0 
  3  4  1  0  0  0  0 
  4  5  1  0  0  0  0 
  5  6  1  0  0  0  0 
  6  7  1  0  0  0  0 
  7  8  1  0  0  0  0 
  9  8  1  0  0  0  0 
 10  9  1  0  0  0  0 
 11 10  1  0  0  0  0 
 12 11  1  0  0  0  0 
 12 13  1  0  0  0  0 
 13 14  1  0  0  0  0 
 15 14  1  0  0  0  0 
 16 15  1  0  0  0  0 
 17 16  1  0  0  0  0 
 18 17  3  0  0  0  0 
M  END
> <Name>
Octadec-1-yne

> <Source>
NIST3DMolFile

> <Tox>
313

> <CAS>
629-89-0

$$$$

  CDK

 29 28  0  0  0  0  0  0  0  0999 V2000
    8.2558    1.5535    6.1991 C   0  0  0  0  0  0  0  0  0  0  0  0
    7.1451    1.4420    7.2325 C   0  0  0  0  0  0  0  0  0  0  0  0
    9.5012    2.1979    6.7825 C   0  0  0  0  0  0  0  0  0  0  0  0
    5.8437    0.9687    6.6023 C   0  0  0  0  0  0  0  0  0  0  0  0
   10.6120    2.2890    5.7490 C   0  0  0  0  0  0  0  0  0  0  0  0
    5.2959    1.9939    5.6212 C   0  0  0  0  0  0  0  0  0  0  0  0
   11.8589    2.9332    6.3329 C   0  0  0  0  0  0  0  0  0  0  0  0
    4.0967    1.4566    4.8591 C   0  0  0  0  0  0  0  0  0  0  0  0
   12.9684    3.0247    5.2998 C   0  0  0  0  0  0  0  0  0  0  0  0
    3.5517    2.4946    3.8921 C   0  0  0  0  0  0  0  0  0  0  0  0
   14.2261    3.6525    5.8813 C   0  0  0  0  0  0  0  0  0  0  0  0
    2.3174    1.9856    3.1647 C   0  0  0  0  0  0  0  0  0  0  0  0
   15.2699    3.9086    4.8045 C   0  0  0  0  0  0  0  0  0  0  0  0
    1.7254    3.0087    2.2036 C   0  0  0  0  0  0  0  0  0  0  0  0
   14.7966    4.9541    3.8079 C   0  0  0  0  0  0  0  0  0  0  0  0
    0.8141    4.0313    2.8709 C   0  0  0  0  0  0  0  0  0  0  0  0
   15.7447    5.0828    2.6276 C   0  0  0  0  0  0  0  0  0  0  0  0
    1.5806    5.2054    3.4545 C   0  0  0  0  0  0  0  0  0  0  0  0
   15.3560    6.2396    1.7196 C   0  0  0  0  0  0  0  0  0  0  0  0
    0.6782    6.1510    4.2319 C   0  0  0  0  0  0  0  0  0  0  0  0
   15.4672    7.5930    2.4101 C   0  0  0  0  0  0  0  0  0  0  0  0
    1.4921    7.1548    5.0362 C   0  0  0  0  0  0  0  0  0  0  0  0
   16.8902    8.1301    2.4241 C   0  0  0  0  0  0  0  0  0  0  0  0
    2.2936    6.4700    6.1337 C   0  0  0  0  0  0  0  0  0  0  0  0
   17.3998    8.4091    1.0184 C   0  0  0  0  0  0  0  0  0  0  0  0
    3.2539    7.4310    6.8134 C   0  0  0  0  0  0  0  0  0  0  0  0
   18.8604    8.7949    1.0172 C   0  0  0  0  0  0  0  0  0  0  0  0
    4.0761    6.7548    7.9004 C   0  0  0  0  0  0  0  0  0  0  0  0
    3.2784    6.4934    9.1586 C   0  0  0  0  0  0  0  0  0  0  0  0
  1  2  1  0  0  0  0 
  1  3  1  0  0  0  0 
  2  4  1  0  0  0  0 
  3  5  1  0  0  0  0 
  4  6  1  0  0  0  0 
  5  7  1  0  0  0  0 
  6  8  1  0  0  0  0 
  7  9  1  0  0  0  0 
  8 10  1  0  0  0  0 
  9 11  1  0  0  0  0 
 10 12  1  0  0  0  0 
 11 13  1  0  0  0  0 
 12 14  1  0  0  0  0 
 13 15  1  0  0  0  0 
 14 16  1  0  0  0  0 
 15 17  1  0  0  0  0 
 16 18  1  0  0  0  0 
 17 19  1  0  0  0  0 
 18 20  1  0  0  0  0 
 19 21  1  0  0  0  0 
 20 22  1  0  0  0  0 
 21 23  1  0  0  0  0 
 22 24  1  0  0  0  0 
 23 25  1  0  0  0  0 
 24 26  1  0  0  0  0 
 25 27  1  0  0  0  0 
 26 28  1  0  0  0  0 
 28 29  1  0  0  0  0 
M  END
> <Name>
NONACOSANE

> <Source>
NIST3DMolFile

> <Tox>
440.8

> <CAS>
630-03-5

$$$$

  CDK

 35 34  0  0  0  0  0  0  0  0999 V2000
   23.4980    1.3323    1.0620 C   0  0  0  0  0  0  0  0  0  0  0  0
   22.2328    1.1740    1.8896 C   0  0  0  0  0  0  0  0  0  0  0  0
   24.7427    1.1911    1.9232 C   0  0  0  0  0  0  0  0  0  0  0  0
   20.9879    1.3070    1.0274 C   0  0  0  0  0  0  0  0  0  0  0  0
   26.0082    1.3502    1.0962 C   0  0  0  0  0  0  0  0  0  0  0  0
   19.7229    1.1553    1.8565 C   0  0  0  0  0  0  0  0  0  0  0  0
   27.2526    1.2027    1.9567 C   0  0  0  0  0  0  0  0  0  0  0  0
   18.4777    1.2830    0.9939 C   0  0  0  0  0  0  0  0  0  0  0  0
   28.5184    1.3635    1.1303 C   0  0  0  0  0  0  0  0  0  0  0  0
   17.2129    1.1336    1.8237 C   0  0  0  0  0  0  0  0  0  0  0  0
   29.7626    1.2106    1.9901 C   0  0  0  0  0  0  0  0  0  0  0  0
   15.9676    1.2587    0.9609 C   0  0  0  0  0  0  0  0  0  0  0  0
   31.0285    1.3723    1.1644 C   0  0  0  0  0  0  0  0  0  0  0  0
   14.7028    1.1145    1.7917 C   0  0  0  0  0  0  0  0  0  0  0  0
   32.2726    1.2142    2.0234 C   0  0  0  0  0  0  0  0  0  0  0  0
   13.4574    1.2336    0.9283 C   0  0  0  0  0  0  0  0  0  0  0  0
   33.5387    1.3744    1.1976 C   0  0  0  0  0  0  0  0  0  0  0  0
   12.1928    1.0905    1.7595 C   0  0  0  0  0  0  0  0  0  0  0  0
   34.7827    1.2133    2.0564 C   0  0  0  0  0  0  0  0  0  0  0  0
   10.9474    1.2045    0.8954 C   0  0  0  0  0  0  0  0  0  0  0  0
   36.0489    1.3732    1.2307 C   0  0  0  0  0  0  0  0  0  0  0  0
    9.6829    1.0629    1.7272 C   0  0  0  0  0  0  0  0  0  0  0  0
   37.2927    1.2084    2.0889 C   0  0  0  0  0  0  0  0  0  0  0  0
    8.4374    1.1720    0.8625 C   0  0  0  0  0  0  0  0  0  0  0  0
   38.5590    1.3686    1.2635 C   0  0  0  0  0  0  0  0  0  0  0  0
    7.1729    1.0333    1.6947 C   0  0  0  0  0  0  0  0  0  0  0  0
   39.8028    1.2008    2.1212 C   0  0  0  0  0  0  0  0  0  0  0  0
    5.9274    1.1387    0.8296 C   0  0  0  0  0  0  0  0  0  0  0  0
   41.0692    1.3619    1.2962 C   0  0  0  0  0  0  0  0  0  0  0  0
    4.6629    1.0014    1.6621 C   0  0  0  0  0  0  0  0  0  0  0  0
   42.3142    1.1899    2.1517 C   0  0  0  0  0  0  0  0  0  0  0  0
    3.4174    1.1049    0.7970 C   0  0  0  0  0  0  0  0  0  0  0  0
   43.5753    1.3505    1.3331 C   0  0  0  0  0  0  0  0  0  0  0  0
    2.1518    0.9674    1.6280 C   0  0  0  0  0  0  0  0  0  0  0  0
    0.9116    1.0695    0.7692 C   0  0  0  0  0  0  0  0  0  0  0  0
  1  2  1  0  0  0  0 
  1  3  1  0  0  0  0 
  2  4  1  0  0  0  0 
  3  5  1  0  0  0  0 
  4  6  1  0  0  0  0 
  5  7  1  0  0  0  0 
  6  8  1  0  0  0  0 
  7  9  1  0  0  0  0 
  8 10  1  0  0  0  0 
  9 11  1  0  0  0  0 
 10 12  1  0  0  0  0 
 11 13  1  0  0  0  0 
 12 14  1  0  0  0  0 
 13 15  1  0  0  0  0 
 14 16  1  0  0  0  0 
 15 17  1  0  0  0  0 
 16 18  1  0  0  0  0 
 17 19  1  0  0  0  0 
 18 20  1  0  0  0  0 
 19 21  1  0  0  0  0 
 20 22  1  0  0  0  0 
 21 23  1  0  0  0  0 
 22 24  1  0  0  0  0 
 23 25  1  0  0  0  0 
 24 26  1  0  0  0  0 
 25 27  1  0  0  0  0 
 26 28  1  0  0  0  0 
 27 29  1  0  0  0  0 
 28 30  1  0  0  0  0 
 29 31  1  0  0  0  0 
 30 32  1  0  0  0  0 
 31 33  1  0  0  0  0 
 32 34  1  0  0  0  0 
 34 35  1  0  0  0  0 
M  END
> <Name>
N-PENTATRIACONTANE

> <Source>
NIST3DMolFile

> <Tox>
490

> <CAS>
630-07-9

$$$$

  CDK

  5  4  0  0  0  0  0  0  0  0999 V2000
   -0.1600   -1.0875    0.0000 I   0  0  0  0  0  0  0  0  0  0  0  0
   -0.1600   -0.2625    0.0000 C   0  0  0  0  0  0  0  0  0  0  0  0
   -0.9850   -0.2625    0.0000 I   0  0  0  0  0  0  0  0  0  0  0  0
    0.6650   -0.2625    0.0000 C   0  0  0  0  0  0  0  0  0  0  0  0
   -0.1600    0.5625    0.0000 C   0  0  0  0  0  0  0  0  0  0  0  0
  1  2  1  0  0  0  0 
  2  3  1  0  0  0  0 
  2  4  1  0  0  0  0 
  2  5  1  0  0  0  0 
M  END
> <Name>
2,2-diiodopropane

> <Source>
Smiles

> <Tox>
173

> <CAS>
630-13-7

$$$$

  CDK

  6  5  0  0  0  0  0  0  0  0999 V2000
    2.0177    0.9584    0.0000 C   0  0  0  0  0  0  0  0  0  0  0  0
    0.9584    0.9584    0.0000 C   0  0  0  0  0  0  0  0  0  0  0  0
    2.4716    1.8663    0.0000 Br  0  0  0  0  0  0  0  0  0  0  0  0
    0.9584    0.0000    0.0000 C   0  0  0  0  0  0  0  0  0  0  0  0
    0.9584    1.9672    0.0000 C   0  0  0  0  0  0  0  0  0  0  0  0
    0.0000    0.9584    0.0000 C   0  0  0  0  0  0  0  0  0  0  0  0
  1  2  1  0  0  0  0 
  1  3  1  0  0  0  0 
  2  4  1  0  0  0  0 
  2  5  1  0  0  0  0 
  2  6  1  0  0  0  0 
M  END
> <Name>
Propane, 1-bromo-2,2-dimethyl-

> <Source>
NIST2DMolFile

> <Tox>
106

> <CAS>
630-17-1

$$$$

  CDK

  6  5  0  0  0  0  0  0  0  0999 V2000
    0.8337    2.6197    2.9434 C   0  0  0  0  0  0  0  0  0  0  0  0
    0.0000    3.0908    3.5954 N   0  0  0  0  0  0  0  0  0  0  0  0
    1.8876    2.0242    2.1190 C   0  0  0  0  0  0  0  0  0  0  0  0
    1.5078    2.1777    0.6452 C   0  0  0  0  0  0  0  0  0  0  0  0
    3.2043    2.7498    2.4011 C   0  0  0  0  0  0  0  0  0  0  0  0
    2.0166    0.5427    2.4775 C   0  0  0  0  0  0  0  0  0  0  0  0
  1  2  3  0  0  0  0 
  1  3  1  0  0  0  0 
  3  4  1  0  0  0  0 
  3  5  1  0  0  0  0 
  3  6  1  0  0  0  0 
M  END
> <Name>
TRIMETHYLACETONITRILE

> <Source>
NIST3DMolFile

> <Tox>
106.1

> <CAS>
630-18-2

$$$$

  CDK

  6  5  0  0  0  0  0  0  0  0999 V2000
    2.0272    0.9889    0.0000 C   0  0  0  0  0  0  0  0  0  0  0  0
    0.9889    0.9889    0.0000 C   0  0  0  0  0  0  0  0  0  0  0  0
    2.4722    1.8789    0.0000 O   0  0  0  0  0  0  0  0  0  0  0  0
    0.9889    0.0000    0.0000 C   0  0  0  0  0  0  0  0  0  0  0  0
    0.9889    1.9778    0.0000 C   0  0  0  0  0  0  0  0  0  0  0  0
    0.0000    0.9889    0.0000 C   0  0  0  0  0  0  0  0  0  0  0  0
  1  2  1  0  0  0  0 
  1  3  2  0  0  0  0 
  2  4  1  0  0  0  0 
  2  5  1  0  0  0  0 
  2  6  1  0  0  0  0 
M  END
> <Name>
PIVALALDEHYDE

> <Source>
NIST2DMolFile

> <Tox>
77.5

> <CAS>
630-19-3

$$$$

  CDK

 26 29  0  0  0  0  0  0  0  0999 V2000
    5.0840    5.9598    3.2343 C   0  0  0  0  0  0  0  0  0  0  0  0
    6.0742    5.0520    3.2981 C   0  0  0  0  0  0  0  0  0  0  0  0
    5.3033    7.3476    2.7841 C   0  0  0  0  0  0  0  0  0  0  0  0
    3.6888    5.6559    3.6027 C   0  0  0  0  0  0  0  0  0  0  0  0
    7.4685    5.3639    2.9308 C   0  0  0  0  0  0  0  0  0  0  0  0
    5.8671    3.6632    3.7491 C   0  0  0  0  0  0  0  0  0  0  0  0
    5.7464    8.3163    3.6866 C   0  0  0  0  0  0  0  0  0  0  0  0
    5.0418    7.6969    1.4583 C   0  0  0  0  0  0  0  0  0  0  0  0
    2.9089    4.8292    2.7924 C   0  0  0  0  0  0  0  0  0  0  0  0
    3.1380    6.2199    4.7550 C   0  0  0  0  0  0  0  0  0  0  0  0
    7.9062    5.1625    1.6208 C   0  0  0  0  0  0  0  0  0  0  0  0
    8.3570    5.8343    3.8989 C   0  0  0  0  0  0  0  0  0  0  0  0
    5.6368    2.6537    2.8130 C   0  0  0  0  0  0  0  0  0  0  0  0
    5.9246    3.3536    5.1087 C   0  0  0  0  0  0  0  0  0  0  0  0
    5.9248    9.6278    3.2605 C   0  0  0  0  0  0  0  0  0  0  0  0
    5.2234    9.0104    1.0398 C   0  0  0  0  0  0  0  0  0  0  0  0
    1.5872    4.5690    3.1366 C   0  0  0  0  0  0  0  0  0  0  0  0
    1.8168    5.9535    5.0945 C   0  0  0  0  0  0  0  0  0  0  0  0
    9.2269    5.4364    1.2831 C   0  0  0  0  0  0  0  0  0  0  0  0
    9.6765    6.1052    3.5542 C   0  0  0  0  0  0  0  0  0  0  0  0
    5.4599    1.3420    3.2380 C   0  0  0  0  0  0  0  0  0  0  0  0
    5.7486    2.0389    5.5263 C   0  0  0  0  0  0  0  0  0  0  0  0
    5.6641    9.9757    1.9392 C   0  0  0  0  0  0  0  0  0  0  0  0
    1.0405    5.1293    4.2863 C   0  0  0  0  0  0  0  0  0  0  0  0
   10.1117    5.9071    2.2479 C   0  0  0  0  0  0  0  0  0  0  0  0
    5.5158    1.0337    4.5936 C   0  0  0  0  0  0  0  0  0  0  0  0
  1  2  2  0  0  0  0 
  1  3  1  0  0  0  0 
  1  4  1  0  0  0  0 
  2  5  1  0  0  0  0 
  2  6  1  0  0  0  0 
  7  3  2  0  0  0  0 
  3  8  1  0  0  0  0 
  4  9  2  0  0  0  0 
 10  4  1  0  0  0  0 
 11  5  2  0  0  0  0 
  5 12  1  0  0  0  0 
 13  6  2  0  0  0  0 
  6 14  1  0  0  0  0 
 15  7  1  0  0  0  0 
  8 16  2  0  0  0  0 
  9 17  1  0  0  0  0 
 18 10  2  0  0  0  0 
 19 11  1  0  0  0  0 
 12 20  2  0  0  0  0 
 21 13  1  0  0  0  0 
 14 22  2  0  0  0  0 
 23 15  2  0  0  0  0 
 16 23  1  0  0  0  0 
 17 24  2  0  0  0  0 
 24 18  1  0  0  0  0 
 25 19  2  0  0  0  0 
 20 25  1  0  0  0  0 
 26 21  2  0  0  0  0 
 22 26  1  0  0  0  0 
M  END
> <Name>
Benzene, 1,1',1'',1'''-(1,2-ethenediylidene)tetr

> <Source>
NIST3DMolFile

> <Tox>
420

> <CAS>
632-51-9

$$$$

  CDK

 16 16  0  0  0  0  0  0  0  0999 V2000
    6.9669    2.5061    0.0000 O   0  0  0  0  0  0  0  0  0  0  0  0
    6.0647    2.9572    0.0000 C   0  0  0  0  0  0  0  0  0  0  0  0
    7.8190    3.0073    0.0000 C   0  0  0  0  0  0  0  0  0  0  0  0
    6.0647    3.9596    0.0000 O   0  0  0  0  0  0  0  0  0  0  0  0
    5.2126    2.4560    0.0000 C   0  0  0  0  0  0  0  0  0  0  0  0
    8.7212    2.4560    0.0000 C   0  0  0  0  0  0  0  0  0  0  0  0
    4.3606    2.9572    0.0000 C   0  0  0  0  0  0  0  0  0  0  0  0
    5.2126    1.4535    0.0000 C   0  0  0  0  0  0  0  0  0  0  0  0
    3.5085    2.4560    0.0000 C   0  0  0  0  0  0  0  0  0  0  0  0
    4.3606    0.9523    0.0000 C   0  0  0  0  0  0  0  0  0  0  0  0
    3.5085    1.4535    0.0000 C   0  0  0  0  0  0  0  0  0  0  0  0
    2.6564    0.9523    0.0000 C   0  0  0  0  0  0  0  0  0  0  0  0
    1.7543    1.4034    0.0000 O   0  0  0  0  0  0  0  0  0  0  0  0
    2.6564    0.0000    0.0000 O   0  0  0  0  0  0  0  0  0  0  0  0
    0.9022    0.9022    0.0000 C   0  0  0  0  0  0  0  0  0  0  0  0
    0.0000    1.4535    0.0000 C   0  0  0  0  0  0  0  0  0  0  0  0
  1  2  1  0  0  0  0 
  1  3  1  0  0  0  0 
  2  4  2  0  0  0  0 
  2  5  1  0  0  0  0 
  3  6  1  0  0  0  0 
  7  5  2  0  0  0  0 
  5  8  1  0  0  0  0 
  9  7  1  0  0  0  0 
  8 10  2  0  0  0  0 
 11  9  2  0  0  0  0 
 10 11  1  0  0  0  0 
 11 12  1  0  0  0  0 
 12 13  1  0  0  0  0 
 12 14  2  0  0  0  0 
 13 15  1  0  0  0  0 
 15 16  1  0  0  0  0 
M  END
> <Name>
1,4-Benzenedicarboxylic acid, diethyl ester

> <Source>
NIST2DMolFile

> <Tox>
302

> <CAS>
636-09-9

$$$$

  CDK

  9  9  0  0  0  0  0  0  0  0999 V2000
    0.0008   -0.2649    0.0010 C   0  0  0  0  0  0  0  0  0  0  0  0
    0.9426   -1.2995    0.0000 C   0  0  0  0  0  0  0  0  0  0  0  0
    0.4432    1.0618    0.0010 C   0  0  0  0  0  0  0  0  0  0  0  0
   -1.4235   -0.5850    0.0018 C   0  0  0  0  0  0  0  0  0  0  0  0
    2.3007   -1.0064   -0.0010 C   0  0  0  0  0  0  0  0  0  0  0  0
    1.8017    1.3499    0.0002 C   0  0  0  0  0  0  0  0  0  0  0  0
   -2.3771    0.3536   -0.0008 C   0  0  0  0  0  0  0  0  0  0  0  0
    2.7326    0.3163   -0.0008 C   0  0  0  0  0  0  0  0  0  0  0  0
   -3.8217    0.0463   -0.0010 C   0  0  0  0  0  0  0  0  0  0  0  0
  1  2  1  0  0  0  0 
  1  3  2  0  0  0  0 
  1  4  1  0  0  0  0 
  2  5  2  0  0  0  0 
  6  3  1  0  0  0  0 
  4  7  2  0  0  0  0 
  5  8  1  0  0  0  0 
  8  6  2  0  0  0  0 
  7  9  1  0  0  0  0 
M  END
> <Name>
BETA-METHYLSTYRENE

> <Source>
DougDB3DMolFile

> <Tox>
175.5

> <CAS>
637-50-3

$$$$

  CDK

  7  6  0  0  0  0  0  0  0  0999 V2000
    1.7073    1.5065    0.0000 C   0  0  0  0  0  0  0  0  0  0  0  0
    0.8537    1.0043    0.0000 C   0  0  0  0  0  0  0  0  0  0  0  0
    2.6112    1.0043    0.0000 C   0  0  0  0  0  0  0  0  0  0  0  0
    0.8537    0.0000    0.0000 C   0  0  0  0  0  0  0  0  0  0  0  0
    0.0000    1.5065    0.0000 Cl  0  0  0  0  0  0  0  0  0  0  0  0
    3.4649    1.5065    0.0000 C   0  0  0  0  0  0  0  0  0  0  0  0
    4.3186    1.0043    0.0000 C   0  0  0  0  0  0  0  0  0  0  0  0
  1  2  1  0  0  0  0 
  1  3  1  0  0  0  0 
  2  4  1  0  0  0  0 
  2  5  1  0  0  0  0 
  3  6  1  0  0  0  0 
  6  7  1  0  0  0  0 
M  END
> <Name>
2-CHLOROHEXANE

> <Source>
NIST2DMolFile

> <Tox>
122.5

> <CAS>
638-28-8

$$$$

  CDK

  7  6  0  0  0  0  0  0  0  0999 V2000
    0.0000    0.0000    0.0000 C   0  0  0  0  0  0  0  0  0  0  0  0
    0.9286    0.4643    0.0000 C   0  0  0  0  0  0  0  0  0  0  0  0
    1.8057    0.0000    0.0000 C   0  0  0  0  0  0  0  0  0  0  0  0
    2.6827    0.4643    0.0000 C   0  0  0  0  0  0  0  0  0  0  0  0
    3.5597    0.0000    0.0000 C   0  0  0  0  0  0  0  0  0  0  0  0
    4.4367    0.4643    0.0000 C   0  0  0  0  0  0  0  0  0  0  0  0
    5.3138    0.0000    0.0000 I   0  0  0  0  0  0  0  0  0  0  0  0
  1  2  1  0  0  0  0 
  2  3  1  0  0  0  0 
  3  4  1  0  0  0  0 
  4  5  1  0  0  0  0 
  5  6  1  0  0  0  0 
  6  7  1  0  0  0  0 
M  END
> <Name>
1-IODOHEXANE

> <Source>
NIST2DMolFile

> <Tox>
181

> <CAS>
638-45-9

$$$$

  CDK

  8  7  0  0  0  0  0  0  0  0999 V2000
    3.4705    0.4958    0.0000 C   0  0  0  0  0  0  0  0  0  0  0  0
    2.5781    0.0000    0.0000 C   0  0  0  0  0  0  0  0  0  0  0  0
    4.3133    0.0000    0.0000 O   0  0  0  0  0  0  0  0  0  0  0  0
    1.7352    0.4958    0.0000 C   0  0  0  0  0  0  0  0  0  0  0  0
    5.1561    0.5454    0.0000 C   0  0  0  0  0  0  0  0  0  0  0  0
    0.8924    0.0000    0.0000 C   0  0  0  0  0  0  0  0  0  0  0  0
    6.0485    0.0496    0.0000 O   0  0  0  0  0  0  0  0  0  0  0  0
    0.0000    0.4958    0.0000 C   0  0  0  0  0  0  0  0  0  0  0  0
  1  2  1  0  0  0  0 
  1  3  1  0  0  0  0 
  2  4  1  0  0  0  0 
  3  5  1  0  0  0  0 
  4  6  1  0  0  0  0 
  5  7  2  0  0  0  0 
  6  8  1  0  0  0  0 
M  END
> <Name>
Formic acid, pentyl ester

> <Source>
NIST2DMolFile

> <Tox>
130.4

> <CAS>
638-49-3

$$$$

  CDK

 30 29  0  0  0  0  0  0  0  0999 V2000
   14.2980    1.4696    7.2700 C   0  0  0  0  0  0  0  0  0  0  0  0
   12.9574    1.3267    6.5678 C   0  0  0  0  0  0  0  0  0  0  0  0
   15.4429    1.5125    6.2710 C   0  0  0  0  0  0  0  0  0  0  0  0
   11.8118    1.2838    7.5661 C   0  0  0  0  0  0  0  0  0  0  0  0
   16.7840    1.6538    6.9728 C   0  0  0  0  0  0  0  0  0  0  0  0
   10.4725    1.1302    6.8636 C   0  0  0  0  0  0  0  0  0  0  0  0
   17.9287    1.6962    5.9733 C   0  0  0  0  0  0  0  0  0  0  0  0
    9.3252    1.0992    7.8601 C   0  0  0  0  0  0  0  0  0  0  0  0
   19.2700    1.8357    6.6746 C   0  0  0  0  0  0  0  0  0  0  0  0
    7.9882    0.9404    7.1573 C   0  0  0  0  0  0  0  0  0  0  0  0
   20.4144    1.8779    5.6748 C   0  0  0  0  0  0  0  0  0  0  0  0
    6.8338    0.9043    8.1475 C   0  0  0  0  0  0  0  0  0  0  0  0
   21.7561    2.0161    6.3757 C   0  0  0  0  0  0  0  0  0  0  0  0
    5.4893    0.9237    7.4359 C   0  0  0  0  0  0  0  0  0  0  0  0
   22.9001    2.0584    5.3756 C   0  0  0  0  0  0  0  0  0  0  0  0
    5.2678    2.2359    6.6988 C   0  0  0  0  0  0  0  0  0  0  0  0
   24.2422    2.1953    6.0761 C   0  0  0  0  0  0  0  0  0  0  0  0
    4.0186    2.1902    5.8360 C   0  0  0  0  0  0  0  0  0  0  0  0
   25.3858    2.2386    5.0756 C   0  0  0  0  0  0  0  0  0  0  0  0
    3.7990    3.5083    5.1116 C   0  0  0  0  0  0  0  0  0  0  0  0
   26.7282    2.3743    5.7759 C   0  0  0  0  0  0  0  0  0  0  0  0
    2.5519    3.4612    4.2438 C   0  0  0  0  0  0  0  0  0  0  0  0
   27.8716    2.4187    4.7751 C   0  0  0  0  0  0  0  0  0  0  0  0
    2.3379    4.7751    3.5129 C   0  0  0  0  0  0  0  0  0  0  0  0
   29.2141    2.5532    5.4752 C   0  0  0  0  0  0  0  0  0  0  0  0
    1.0843    4.7413    2.6521 C   0  0  0  0  0  0  0  0  0  0  0  0
   30.3588    2.6000    4.4757 C   0  0  0  0  0  0  0  0  0  0  0  0
    0.9801    5.9808    1.7751 C   0  0  0  0  0  0  0  0  0  0  0  0
   31.6953    2.7322    5.1702 C   0  0  0  0  0  0  0  0  0  0  0  0
    2.1004    6.0403    0.7595 C   0  0  0  0  0  0  0  0  0  0  0  0
  1  2  1  0  0  0  0 
  1  3  1  0  0  0  0 
  2  4  1  0  0  0  0 
  3  5  1  0  0  0  0 
  4  6  1  0  0  0  0 
  5  7  1  0  0  0  0 
  6  8  1  0  0  0  0 
  7  9  1  0  0  0  0 
  8 10  1  0  0  0  0 
  9 11  1  0  0  0  0 
 10 12  1  0  0  0  0 
 11 13  1  0  0  0  0 
 12 14  1  0  0  0  0 
 13 15  1  0  0  0  0 
 14 16  1  0  0  0  0 
 15 17  1  0  0  0  0 
 16 18  1  0  0  0  0 
 17 19  1  0  0  0  0 
 18 20  1  0  0  0  0 
 19 21  1  0  0  0  0 
 20 22  1  0  0  0  0 
 21 23  1  0  0  0  0 
 22 24  1  0  0  0  0 
 23 25  1  0  0  0  0 
 24 26  1  0  0  0  0 
 25 27  1  0  0  0  0 
 26 28  1  0  0  0  0 
 27 29  1  0  0  0  0 
 28 30  1  0  0  0  0 
M  END
> <Name>
TRIACONTANE

> <Source>
NIST3DMolFile

> <Tox>
449.7

> <CAS>
638-68-6

$$$$

  CDK

 17 16  0  0  0  0  0  0  0  0999 V2000
    3.1135   -0.4880   -1.5989 I   0  0  0  0  0  0  0  0  0  0  0  0
    1.9444    0.6385   -0.2824 C   0  0  0  0  0  0  0  0  0  0  0  0
    1.1608    1.4870   -0.9946 F   0  0  0  0  0  0  0  0  0  0  0  0
    2.7885    1.4338    0.4359 F   0  0  0  0  0  0  0  0  0  0  0  0
    1.0994   -0.1454    0.7080 C   0  0  0  0  0  0  0  0  0  0  0  0
    1.9302   -0.9246    1.4607 F   0  0  0  0  0  0  0  0  0  0  0  0
    0.5626    0.7521    1.5855 F   0  0  0  0  0  0  0  0  0  0  0  0
   -0.0284   -1.0338    0.1941 C   0  0  0  0  0  0  0  0  0  0  0  0
    0.5039   -2.0319   -0.5645 F   0  0  0  0  0  0  0  0  0  0  0  0
   -0.5775   -1.6577    1.2781 F   0  0  0  0  0  0  0  0  0  0  0  0
   -1.1595   -0.4026   -0.6028 C   0  0  0  0  0  0  0  0  0  0  0  0
   -2.0197   -1.4028   -0.9526 F   0  0  0  0  0  0  0  0  0  0  0  0
   -0.6805    0.0986   -1.7688 F   0  0  0  0  0  0  0  0  0  0  0  0
   -1.9633    0.6649    0.0975 C   0  0  0  0  0  0  0  0  0  0  0  0
   -1.1838    1.7027    0.4678 F   0  0  0  0  0  0  0  0  0  0  0  0
   -2.9551    1.1456   -0.6785 F   0  0  0  0  0  0  0  0  0  0  0  0
   -2.5355    0.1633    1.2155 F   0  0  0  0  0  0  0  0  0  0  0  0
  1  2  1  0  0  0  0 
  3  2  1  0  0  0  0 
  4  2  1  0  0  0  0 
  5  2  1  0  0  0  0 
  6  5  1  0  0  0  0 
  7  5  1  0  0  0  0 
  8  5  1  0  0  0  0 
  9  8  1  0  0  0  0 
 10  8  1  0  0  0  0 
  8 11  1  0  0  0  0 
 12 11  1  0  0  0  0 
 13 11  1  0  0  0  0 
 11 14  1  0  0  0  0 
 15 14  1  0  0  0  0 
 16 14  1  0  0  0  0 
 17 14  1  0  0  0  0 
M  END
> <Name>
Pentane, undecafluoro-5-iodo-

> <Source>
Chemidplus3DMolFile

> <Tox>
94.4

> <CAS>
638-79-9

$$$$

  CDK

 24 27  0  0  0  0  0  0  0  0999 V2000
    4.6131    2.8167    2.2307 C   0  0  0  0  0  0  0  0  0  0  0  0
    5.8657    3.3478    2.5687 C   0  0  0  0  0  0  0  0  0  0  0  0
    4.5382    1.7723    1.3023 C   0  0  0  0  0  0  0  0  0  0  0  0
    3.3567    3.2916    2.8318 C   0  0  0  0  0  0  0  0  0  0  0  0
    7.0191    2.8147    1.9837 C   0  0  0  0  0  0  0  0  0  0  0  0
    6.0143    4.5132    3.4595 C   0  0  0  0  0  0  0  0  0  0  0  0
    5.6894    1.2550    0.7243 C   0  0  0  0  0  0  0  0  0  0  0  0
    2.3580    3.8272    2.0147 C   0  0  0  0  0  0  0  0  0  0  0  0
    3.1450    3.1720    4.2062 C   0  0  0  0  0  0  0  0  0  0  0  0
    6.9338    1.7728    1.0698 C   0  0  0  0  0  0  0  0  0  0  0  0
    6.7626    4.4579    4.6445 C   0  0  0  0  0  0  0  0  0  0  0  0
    5.4431    5.7272    3.0630 C   0  0  0  0  0  0  0  0  0  0  0  0
    1.1578    4.2442    2.5789 C   0  0  0  0  0  0  0  0  0  0  0  0
    1.9416    3.5909    4.7622 C   0  0  0  0  0  0  0  0  0  0  0  0
    6.9495    5.6317    5.3834 C   0  0  0  0  0  0  0  0  0  0  0  0
    7.3682    3.2185    5.1551 C   0  0  0  0  0  0  0  0  0  0  0  0
    5.6324    6.8823    3.8083 C   0  0  0  0  0  0  0  0  0  0  0  0
    0.9487    4.1276    3.9493 C   0  0  0  0  0  0  0  0  0  0  0  0
    6.3896    6.8340    4.9746 C   0  0  0  0  0  0  0  0  0  0  0  0
    8.7495    3.1546    5.3553 C   0  0  0  0  0  0  0  0  0  0  0  0
    6.5645    2.1243    5.4804 C   0  0  0  0  0  0  0  0  0  0  0  0
    9.3166    1.9962    5.8746 C   0  0  0  0  0  0  0  0  0  0  0  0
    7.1400    0.9695    5.9981 C   0  0  0  0  0  0  0  0  0  0  0  0
    8.5153    0.9065    6.1982 C   0  0  0  0  0  0  0  0  0  0  0  0
  1  2  2  0  0  0  0 
  3  1  1  0  0  0  0 
  1  4  1  0  0  0  0 
  2  5  1  0  0  0  0 
  2  6  1  0  0  0  0 
  7  3  2  0  0  0  0 
  8  4  2  0  0  0  0 
  4  9  1  0  0  0  0 
  5 10  2  0  0  0  0 
 11  6  2  0  0  0  0 
  6 12  1  0  0  0  0 
 10  7  1  0  0  0  0 
 13  8  1  0  0  0  0 
  9 14  2  0  0  0  0 
 15 11  1  0  0  0  0 
 11 16  1  0  0  0  0 
 12 17  2  0  0  0  0 
 18 13  2  0  0  0  0 
 14 18  1  0  0  0  0 
 19 15  2  0  0  0  0 
 16 20  2  0  0  0  0 
 21 16  1  0  0  0  0 
 17 19  1  0  0  0  0 
 20 22  1  0  0  0  0 
 23 21  2  0  0  0  0 
 22 24  2  0  0  0  0 
 24 23  1  0  0  0  0 
M  END
> <Name>
1,1':2',1'':2'',1'''-QUATERPHENYL

> <Source>
NIST3DMolFile

> <Tox>
420

> <CAS>
641-96-3

$$$$

  CDK

  9  9  0  0  0  0  0  0  0  0999 V2000
    3.9880   -1.1560    0.0000 P   0  0  0  0  0  0  0  0  0  0  0  0
    4.6426   -2.3074    0.0000 Cl  0  0  0  0  0  0  0  0  0  0  0  0
    4.6426   -0.0000    0.0000 Cl  0  0  0  0  0  0  0  0  0  0  0  0
    2.6556   -1.1560    0.0000 C   0  0  0  0  0  0  0  0  0  0  0  0
    1.9870   -2.3074    0.0000 C   0  0  0  0  0  0  0  0  0  0  0  0
    1.9870   -0.0000    0.0000 C   0  0  0  0  0  0  0  0  0  0  0  0
    0.6546   -2.3074    0.0000 C   0  0  0  0  0  0  0  0  0  0  0  0
    0.6546   -0.0000    0.0000 C   0  0  0  0  0  0  0  0  0  0  0  0
    0.0000   -1.1560    0.0000 C   0  0  0  0  0  0  0  0  0  0  0  0
  1  2  1  0  0  0  0 
  1  3  1  0  0  0  0 
  1  4  1  0  0  0  0 
  4  5  2  0  0  0  0 
  4  6  1  0  0  0  0 
  5  7  1  0  0  0  0 
  6  8  2  0  0  0  0 
  7  9  2  0  0  0  0 
  8  9  1  0  0  0  0 
M  END
> <Name>
Phosphonous dichloride, phenyl-

> <Source>
DSSTox2DMolFile

> <Tox>
225

> <CAS>
644-97-3

$$$$

  CDK

 12 12  0  0  0  0  0  0  0  0999 V2000
    1.1537   -2.6597    0.0000 C   0  0  0  0  0  0  0  0  0  0  0  0
    0.0000   -1.9896    0.0000 N   0  0  0  0  0  0  0  0  0  0  0  0
    1.1537   -3.9861    0.0000 O   0  0  0  0  0  0  0  0  0  0  0  0
    2.3004   -1.9896    0.0000 C   0  0  0  0  0  0  0  0  0  0  0  0
    2.3004   -0.6632    0.0000 C   0  0  0  0  0  0  0  0  0  0  0  0
    3.4541   -2.6597    0.0000 C   0  0  0  0  0  0  0  0  0  0  0  0
    3.4541   -0.0000    0.0000 C   0  0  0  0  0  0  0  0  0  0  0  0
    4.6078   -1.9896    0.0000 C   0  0  0  0  0  0  0  0  0  0  0  0
    4.6078   -0.6632    0.0000 C   0  0  0  0  0  0  0  0  0  0  0  0
    5.7546   -2.6597    0.0000 N   0  0  0  0  0  0  0  0  0  0  0  0
    5.7546   -3.9861    0.0000 O   0  0  0  0  0  0  0  0  0  0  0  0
    6.9082   -1.9896    0.0000 O   0  0  0  0  0  0  0  0  0  0  0  0
  1  2  1  0  0  0  0 
  1  3  2  0  0  0  0 
  1  4  1  0  0  0  0 
  4  5  2  0  0  0  0 
  4  6  1  0  0  0  0 
  5  7  1  0  0  0  0 
  8  6  2  0  0  0  0 
  7  9  2  0  0  0  0 
  9  8  1  0  0  0  0 
  8 10  1  0  0  0  0 
 10 11  2  0  0  0  0 
 10 12  1  0  0  0  0 
M  CHG  1  10   1
M  CHG  1  12  -1
M  END
> <Name>
M-NITROBENZAMIDE

> <Source>
DSSTox2DMolFile

> <Tox>
312.5

> <CAS>
645-09-0

$$$$

  CDK

 24 23  0  0  0  0  0  0  0  0999 V2000
    3.2141    4.6775    7.8276 C   0  0  0  0  0  0  0  0  0  0  0  0
    1.9443    4.6254    6.9901 C   0  0  0  0  0  0  0  0  0  0  0  0
    4.4212    4.9855    6.9576 C   0  0  0  0  0  0  0  0  0  0  0  0
    1.6239    5.9723    6.3542 C   0  0  0  0  0  0  0  0  0  0  0  0
    5.7252    4.9753    7.7364 C   0  0  0  0  0  0  0  0  0  0  0  0
    0.7215    5.8529    5.1327 C   0  0  0  0  0  0  0  0  0  0  0  0
    6.9137    5.2227    6.8186 C   0  0  0  0  0  0  0  0  0  0  0  0
    1.4856    5.6757    3.8276 C   0  0  0  0  0  0  0  0  0  0  0  0
    7.0779    4.1347    5.7665 C   0  0  0  0  0  0  0  0  0  0  0  0
    1.9498    4.2454    3.5904 C   0  0  0  0  0  0  0  0  0  0  0  0
    7.8716    2.9353    6.2626 C   0  0  0  0  0  0  0  0  0  0  0  0
    2.9403    4.1653    2.4406 C   0  0  0  0  0  0  0  0  0  0  0  0
    9.3120    3.2847    6.6217 C   0  0  0  0  0  0  0  0  0  0  0  0
    4.2343    4.9006    2.7593 C   0  0  0  0  0  0  0  0  0  0  0  0
   10.2953    3.0727    5.4804 C   0  0  0  0  0  0  0  0  0  0  0  0
    5.2275    4.8213    1.6102 C   0  0  0  0  0  0  0  0  0  0  0  0
   10.1636    4.1094    4.3757 C   0  0  0  0  0  0  0  0  0  0  0  0
    5.6804    3.3938    1.3305 C   0  0  0  0  0  0  0  0  0  0  0  0
   10.9416    3.7014    3.1357 C   0  0  0  0  0  0  0  0  0  0  0  0
    6.8119    2.9565    2.2453 C   0  0  0  0  0  0  0  0  0  0  0  0
   10.8009    4.7347    2.0296 C   0  0  0  0  0  0  0  0  0  0  0  0
    7.1792    1.4976    2.0259 C   0  0  0  0  0  0  0  0  0  0  0  0
   11.5835    4.3380    0.7984 C   0  0  0  0  0  0  0  0  0  0  0  0
    8.2958    1.0675    2.9500 C   0  0  0  0  0  0  0  0  0  0  0  0
  1  2  1  0  0  0  0 
  1  3  1  0  0  0  0 
  2  4  1  0  0  0  0 
  3  5  1  0  0  0  0 
  4  6  1  0  0  0  0 
  5  7  1  0  0  0  0 
  6  8  1  0  0  0  0 
  7  9  1  0  0  0  0 
  8 10  1  0  0  0  0 
  9 11  1  0  0  0  0 
 10 12  1  0  0  0  0 
 11 13  1  0  0  0  0 
 12 14  1  0  0  0  0 
 13 15  1  0  0  0  0 
 14 16  1  0  0  0  0 
 15 17  1  0  0  0  0 
 16 18  1  0  0  0  0 
 17 19  1  0  0  0  0 
 18 20  1  0  0  0  0 
 19 21  1  0  0  0  0 
 20 22  1  0  0  0  0 
 21 23  1  0  0  0  0 
 22 24  1  0  0  0  0 
M  END
> <Name>
TETRACOSANE

> <Source>
NIST3DMolFile

> <Tox>
391.3

> <CAS>
646-31-1

$$$$

  CDK

  4  3  0  0  0  0  0  0  0  0999 V2000
    2.0918    0.5470    0.0000 I   0  0  0  0  0  0  0  0  0  0  0  0
    0.5018   -0.8604    0.0000 C   0  0  0  0  0  0  0  0  0  0  0  0
   -0.7718   -0.1347    0.0000 C   0  0  0  0  0  0  0  0  0  0  0  0
   -1.8218    0.4481    0.0000 C   0  0  0  0  0  0  0  0  0  0  0  0
  1  2  1  0  0  0  0 
  2  3  1  0  0  0  0 
  3  4  3  0  0  0  0 
M  END
> <Name>
1-PROPYNE, 3-IODO-

> <Source>
Chemidplus3DMolFile

> <Tox>
115

> <CAS>
659-86-9

$$$$

  CDK

 10  9  0  0  0  0  0  0  0  0999 V2000
    0.0000    2.0210    0.0000 N   0  0  0  0  0  0  0  0  0  0  0  0
    0.8589    2.4757    0.0000 C   0  0  0  0  0  0  0  0  0  0  0  0
    1.7178    2.0210    0.0000 C   0  0  0  0  0  0  0  0  0  0  0  0
    2.6273    2.4757    0.0000 C   0  0  0  0  0  0  0  0  0  0  0  0
    1.7178    1.0610    0.0000 C   0  0  0  0  0  0  0  0  0  0  0  0
    3.4862    2.9810    0.0000 N   0  0  0  0  0  0  0  0  0  0  0  0
    0.8589    0.5558    0.0000 C   0  0  0  0  0  0  0  0  0  0  0  0
    2.6273    0.5558    0.0000 C   0  0  0  0  0  0  0  0  0  0  0  0
    0.0000    0.0000    0.0000 N   0  0  0  0  0  0  0  0  0  0  0  0
    3.4862    0.0000    0.0000 N   0  0  0  0  0  0  0  0  0  0  0  0
  1  2  3  0  0  0  0 
  2  3  1  0  0  0  0 
  3  4  1  0  0  0  0 
  3  5  2  0  0  0  0 
  4  6  3  0  0  0  0 
  5  7  1  0  0  0  0 
  5  8  1  0  0  0  0 
  7  9  3  0  0  0  0 
  8 10  3  0  0  0  0 
M  END
> <Name>
Ethenetetracarbonitrile

> <Source>
NIST2DMolFile

> <Tox>
223

> <CAS>
670-54-2

$$$$

  CDK

  6  6  0  0  0  0  0  0  0  0999 V2000
    2.2754   -0.9475    0.0000 O   0  0  0  0  0  0  0  0  0  0  0  0
    2.2754   -2.2754    0.0000 C   0  0  0  0  0  0  0  0  0  0  0  0
    0.9475   -0.9475    0.0000 C   0  0  0  0  0  0  0  0  0  0  0  0
    0.9475   -2.2754    0.0000 C   0  0  0  0  0  0  0  0  0  0  0  0
    3.2229   -3.2068    0.0000 O   0  0  0  0  0  0  0  0  0  0  0  0
    0.0000   -0.0000    0.0000 C   0  0  0  0  0  0  0  0  0  0  0  0
  1  2  1  0  0  0  0 
  1  3  1  0  0  0  0 
  2  4  1  0  0  0  0 
  2  5  2  0  0  0  0 
  4  3  1  0  0  0  0 
  3  6  2  0  0  0  0 
M  END
> <Name>
DIKETENE

> <Source>
DSSTox2DMolFile

> <Tox>
126.1

> <CAS>
674-82-8

$$$$

  CDK

  5  4  0  0  0  0  0  0  0  0999 V2000
   -1.5827   -1.0323    0.3212 Cl  0  0  0  0  0  0  0  0  0  0  0  0
    0.0000    0.0931   -0.1379 P   0  0  0  0  0  0  0  0  0  0  0  0
    1.5839   -1.0304    0.3216 Cl  0  0  0  0  0  0  0  0  0  0  0  0
   -0.0002    0.5372   -1.5628 O   0  0  0  0  0  0  0  0  0  0  0  0
   -0.0011    1.4324    1.0579 C   0  0  0  0  0  0  0  0  0  0  0  0
  1  2  1  0  0  0  0 
  3  2  1  0  0  0  0 
  2  4  2  0  0  0  0 
  2  5  1  0  0  0  0 
M  END
> <Name>
Methyl phosphonic dichloride

> <Source>
Chemidplus3DMolFile

> <Tox>
163

> <CAS>
676-97-1

$$$$

  CDK

 17 16  0  0  0  0  0  0  0  0999 V2000
    2.1132    1.0063    0.0000 C   0  0  0  0  0  0  0  0  0  0  0  0
    3.1195    1.0063    0.0000 C   0  0  0  0  0  0  0  0  0  0  0  0
    1.1069    1.0063    0.0000 C   0  0  0  0  0  0  0  0  0  0  0  0
    2.1132    0.0000    0.0000 F   0  0  0  0  0  0  0  0  0  0  0  0
    2.1132    2.0126    0.0000 F   0  0  0  0  0  0  0  0  0  0  0  0
    4.1258    1.0063    0.0000 C   0  0  0  0  0  0  0  0  0  0  0  0
    3.1195    2.0126    0.0000 F   0  0  0  0  0  0  0  0  0  0  0  0
    3.1195    0.0503    0.0000 F   0  0  0  0  0  0  0  0  0  0  0  0
    1.1069    2.0629    0.0000 F   0  0  0  0  0  0  0  0  0  0  0  0
    1.1069    0.0000    0.0000 F   0  0  0  0  0  0  0  0  0  0  0  0
    0.0000    1.0063    0.0000 F   0  0  0  0  0  0  0  0  0  0  0  0
    5.1321    1.0063    0.0000 C   0  0  0  0  0  0  0  0  0  0  0  0
    4.1258    2.0126    0.0000 F   0  0  0  0  0  0  0  0  0  0  0  0
    4.1258    0.1006    0.0000 F   0  0  0  0  0  0  0  0  0  0  0  0
    5.1321    0.1006    0.0000 F   0  0  0  0  0  0  0  0  0  0  0  0
    5.1321    2.0126    0.0000 F   0  0  0  0  0  0  0  0  0  0  0  0
    6.1384    1.0063    0.0000 F   0  0  0  0  0  0  0  0  0  0  0  0
  1  2  1  0  0  0  0 
  1  3  1  0  0  0  0 
  1  4  1  0  0  0  0 
  1  5  1  0  0  0  0 
  2  6  1  0  0  0  0 
  2  7  1  0  0  0  0 
  2  8  1  0  0  0  0 
  3  9  1  0  0  0  0 
  3 10  1  0  0  0  0 
  3 11  1  0  0  0  0 
  6 12  1  0  0  0  0 
  6 13  1  0  0  0  0 
  6 14  1  0  0  0  0 
 12 15  1  0  0  0  0 
 12 16  1  0  0  0  0 
 12 17  1  0  0  0  0 
M  END
> <Name>
PENTANE, DODECAFLUORO-

> <Source>
NIST2DMolFile

> <Tox>
29.2

> <CAS>
678-26-2

$$$$

  CDK

 17 16  0  0  0  0  0  0  0  0999 V2000
    4.8506    2.4253    0.0000 Si  0  0  0  0  0  0  0  0  0  0  0  0
    3.6380    1.7257    0.0000 O   0  0  0  0  0  0  0  0  0  0  0  0
    6.0633    3.1249    0.0000 O   0  0  0  0  0  0  0  0  0  0  0  0
    4.1510    3.6380    0.0000 O   0  0  0  0  0  0  0  0  0  0  0  0
    5.5503    1.2127    0.0000 O   0  0  0  0  0  0  0  0  0  0  0  0
    2.4253    2.4253    0.0000 C   0  0  0  0  0  0  0  0  0  0  0  0
    6.0633    4.5242    0.0000 C   0  0  0  0  0  0  0  0  0  0  0  0
    4.8506    4.8506    0.0000 C   0  0  0  0  0  0  0  0  0  0  0  0
    6.9495    1.2127    0.0000 C   0  0  0  0  0  0  0  0  0  0  0  0
    1.2127    1.7257    0.0000 C   0  0  0  0  0  0  0  0  0  0  0  0
    7.2760    5.2238    0.0000 C   0  0  0  0  0  0  0  0  0  0  0  0
    4.1510    6.0633    0.0000 C   0  0  0  0  0  0  0  0  0  0  0  0
    7.6491    0.0000    0.0000 C   0  0  0  0  0  0  0  0  0  0  0  0
    0.0000    2.4253    0.0000 C   0  0  0  0  0  0  0  0  0  0  0  0
    7.2760    6.6230    0.0000 C   0  0  0  0  0  0  0  0  0  0  0  0
    4.8506    7.2760    0.0000 C   0  0  0  0  0  0  0  0  0  0  0  0
    9.0483    0.0000    0.0000 C   0  0  0  0  0  0  0  0  0  0  0  0
  1  2  1  0  0  0  0 
  1  3  1  0  0  0  0 
  1  4  1  0  0  0  0 
  1  5  1  0  0  0  0 
  2  6  1  0  0  0  0 
  3  7  1  0  0  0  0 
  4  8  1  0  0  0  0 
  5  9  1  0  0  0  0 
  6 10  1  0  0  0  0 
  7 11  1  0  0  0  0 
  8 12  1  0  0  0  0 
  9 13  1  0  0  0  0 
 10 14  1  0  0  0  0 
 11 15  1  0  0  0  0 
 12 16  1  0  0  0  0 
 13 17  1  0  0  0  0 
M  END
> <Name>
Tetrapropoxy silane

> <Source>
IndexNet2DMolFile

> <Tox>
226

> <CAS>
682-01-9

$$$$

  CDK

  6  5  0  0  0  0  0  0  0  0999 V2000
    3.3250   -1.1509    0.0000 Cl  0  0  0  0  0  0  0  0  0  0  0  0
    1.9943   -1.1509    0.0000 C   0  0  0  0  0  0  0  0  0  0  0  0
    1.3307   -0.0000    0.0000 Cl  0  0  0  0  0  0  0  0  0  0  0  0
    1.3307   -2.3053    0.0000 C   0  0  0  0  0  0  0  0  0  0  0  0
    1.9943   -3.4563    0.0000 N   0  0  0  0  0  0  0  0  0  0  0  0
    0.0000   -2.3053    0.0000 O   0  0  0  0  0  0  0  0  0  0  0  0
  1  2  1  0  0  0  0 
  2  3  1  0  0  0  0 
  2  4  1  0  0  0  0 
  4  5  1  0  0  0  0 
  4  6  2  0  0  0  0 
M  END
> <Name>
ACETAMIDE, 2,2-DICHLORO-

> <Source>
DSSTox2DMolFile

> <Tox>
234

> <CAS>
683-72-7

$$$$

  CDK

  7  6  0  0  0  0  0  0  0  0999 V2000
   -0.8842   -0.8776    1.2197 O   0  0  0  0  0  0  0  0  0  0  0  0
   -0.7401   -0.5914   -0.1697 C   0  0  0  0  0  0  0  0  0  0  0  0
    0.2412    0.5884   -0.3647 C   0  0  0  0  0  0  0  0  0  0  0  0
   -2.1202   -0.3301   -0.7639 C   0  0  0  0  0  0  0  0  0  0  0  0
    1.6346    0.2598    0.1962 C   0  0  0  0  0  0  0  0  0  0  0  0
   -0.2569    1.8894    0.2727 C   0  0  0  0  0  0  0  0  0  0  0  0
    2.1255   -0.9385   -0.3902 O   0  0  0  0  0  0  0  0  0  0  0  0
  1  2  1  0  0  0  0 
  3  2  1  0  0  0  0 
  2  4  1  0  0  0  0 
  3  5  1  0  0  0  0 
  3  6  1  0  0  0  0 
  7  5  1  0  0  0  0 
M  END
> <Name>
1,3-BUTANEDIOL, 2-METHYL-

> <Source>
Chemidplus3DMolFile

> <Tox>
200

> <CAS>
684-84-4

$$$$

  CDK

 10  9  0  0  0  0  0  0  0  0999 V2000
    3.4932    1.6967    0.0000 F   0  0  0  0  0  0  0  0  0  0  0  0
    2.9941    0.8483    0.0000 C   0  0  0  0  0  0  0  0  0  0  0  0
    3.4932    0.0000    0.0000 F   0  0  0  0  0  0  0  0  0  0  0  0
    2.0460    0.8483    0.0000 C   0  0  0  0  0  0  0  0  0  0  0  0
    1.4971    0.0000    0.0000 F   0  0  0  0  0  0  0  0  0  0  0  0
    1.4971    1.6967    0.0000 C   0  0  0  0  0  0  0  0  0  0  0  0
    2.0460    2.5949    0.0000 F   0  0  0  0  0  0  0  0  0  0  0  0
    0.4990    1.6967    0.0000 C   0  0  0  0  0  0  0  0  0  0  0  0
    0.0000    2.5949    0.0000 F   0  0  0  0  0  0  0  0  0  0  0  0
    0.0000    0.8483    0.0000 F   0  0  0  0  0  0  0  0  0  0  0  0
  1  2  1  0  0  0  0 
  2  3  1  0  0  0  0 
  2  4  2  0  0  0  0 
  5  4  1  0  0  0  0 
  4  6  1  0  0  0  0 
  6  7  1  0  0  0  0 
  6  8  2  0  0  0  0 
  9  8  1  0  0  0  0 
  8 10  1  0  0  0  0 
M  END
> <Name>
1,3-Butadiene, 1,1,2,3,4,4-hexafluoro-

> <Source>
NIST2DMolFile

> <Tox>
6

> <CAS>
685-63-2

$$$$

  CDK

  9  8  0  0  0  0  0  0  0  0999 V2000
    2.5883    1.5430    0.0000 C   0  0  0  0  0  0  0  0  0  0  0  0
    1.7421    0.9955    0.0000 C   0  0  0  0  0  0  0  0  0  0  0  0
    3.4842    1.0453    0.0000 C   0  0  0  0  0  0  0  0  0  0  0  0
    0.8959    1.4932    0.0000 O   0  0  0  0  0  0  0  0  0  0  0  0
    1.7421    0.0000    0.0000 O   0  0  0  0  0  0  0  0  0  0  0  0
    4.3304    1.5430    0.0000 C   0  0  0  0  0  0  0  0  0  0  0  0
    0.0000    0.9955    0.0000 C   0  0  0  0  0  0  0  0  0  0  0  0
    5.1765    1.0453    0.0000 C   0  0  0  0  0  0  0  0  0  0  0  0
    6.0725    1.4932    0.0000 C   0  0  0  0  0  0  0  0  0  0  0  0
  1  2  1  0  0  0  0 
  1  3  2  0  0  0  0 
  2  4  1  0  0  0  0 
  2  5  2  0  0  0  0 
  3  6  1  0  0  0  0 
  4  7  1  0  0  0  0 
  6  8  2  0  0  0  0 
  8  9  1  0  0  0  0 
M  END
> <Name>
2,4-Hexadienoic acid, methyl ester, (E,E)-

> <Source>
NIST2DMolFile

> <Tox>
180

> <CAS>
689-89-4

$$$$

  CDK

  8  7  0  0  0  0  0  0  0  0999 V2000
    3.0528    2.1612    0.9677 C   0  0  0  0  0  0  0  0  0  0  0  0
    2.1440    2.3385    2.1554 C   0  0  0  0  0  0  0  0  0  0  0  0
    4.3836    2.0669    0.9701 C   0  0  0  0  0  0  0  0  0  0  0  0
    2.3007    1.1597    3.1168 C   0  0  0  0  0  0  0  0  0  0  0  0
    2.4739    3.6411    2.8849 C   0  0  0  0  0  0  0  0  0  0  0  0
    0.6921    2.3952    1.6745 C   0  0  0  0  0  0  0  0  0  0  0  0
    5.2745    2.1350    2.1592 C   0  0  0  0  0  0  0  0  0  0  0  0
    6.1568    0.9096    2.2543 C   0  0  0  0  0  0  0  0  0  0  0  0
  1  2  1  0  0  0  0 
  1  3  2  0  0  0  0 
  2  4  1  0  0  0  0 
  2  5  1  0  0  0  0 
  2  6  1  0  0  0  0 
  3  7  1  0  0  0  0 
  7  8  1  0  0  0  0 
M  END
> <Name>
3-HEXENE, 2,2-DIMETHYL-, (Z)-

> <Source>
NIST3DMolFile

> <Tox>
105.5

> <CAS>
690-92-6

$$$$

  CDK

  7  6  0  0  0  0  0  0  0  0999 V2000
    1.6635    1.8389    0.6846 C   0  0  0  0  0  0  0  0  0  0  0  0
    2.0452    2.1197    2.1304 C   0  0  0  0  0  0  0  0  0  0  0  0
    3.2563    1.3201    2.4954 C   0  0  0  0  0  0  0  0  0  0  0  0
    0.8989    1.7709    3.0674 C   0  0  0  0  0  0  0  0  0  0  0  0
    4.4180    1.8787    2.8357 C   0  0  0  0  0  0  0  0  0  0  0  0
    5.6228    1.0842    3.2001 C   0  0  0  0  0  0  0  0  0  0  0  0
    6.0285    1.3456    4.6352 C   0  0  0  0  0  0  0  0  0  0  0  0
  1  2  1  0  0  0  0 
  2  3  1  0  0  0  0 
  2  4  1  0  0  0  0 
  3  5  2  0  0  0  0 
  5  6  1  0  0  0  0 
  6  7  1  0  0  0  0 
M  END
> <Name>
3-HEXENE, 2-METHYL-, (E)-

> <Source>
NIST3DMolFile

> <Tox>
85.9

> <CAS>
692-24-0

$$$$

  CDK

 15 14  0  0  0  0  0  0  0  0999 V2000
    3.4842    1.4932    0.0000 C   0  0  0  0  0  0  0  0  0  0  0  0
    4.3304    0.9955    0.0000 C   0  0  0  0  0  0  0  0  0  0  0  0
    2.5883    0.9955    0.0000 C   0  0  0  0  0  0  0  0  0  0  0  0
    5.1766    1.4932    0.0000 C   0  0  0  0  0  0  0  0  0  0  0  0
    1.7421    1.4932    0.0000 O   0  0  0  0  0  0  0  0  0  0  0  0
    2.5883    0.0000    0.0000 O   0  0  0  0  0  0  0  0  0  0  0  0
    6.0725    0.9955    0.0000 C   0  0  0  0  0  0  0  0  0  0  0  0
    0.8959    0.9955    0.0000 C   0  0  0  0  0  0  0  0  0  0  0  0
    6.9187    1.4932    0.0000 C   0  0  0  0  0  0  0  0  0  0  0  0
    0.0000    1.4932    0.0000 C   0  0  0  0  0  0  0  0  0  0  0  0
    7.7649    0.9955    0.0000 C   0  0  0  0  0  0  0  0  0  0  0  0
    8.6608    1.4932    0.0000 C   0  0  0  0  0  0  0  0  0  0  0  0
    9.5070    0.9955    0.0000 C   0  0  0  0  0  0  0  0  0  0  0  0
   10.3532    1.5430    0.0000 C   0  0  0  0  0  0  0  0  0  0  0  0
   11.2491    1.0453    0.0000 C   0  0  0  0  0  0  0  0  0  0  0  0
  1  2  1  0  0  0  0 
  1  3  1  0  0  0  0 
  2  4  1  0  0  0  0 
  3  5  1  0  0  0  0 
  3  6  2  0  0  0  0 
  4  7  1  0  0  0  0 
  5  8  1  0  0  0  0 
  7  9  1  0  0  0  0 
  8 10  1  0  0  0  0 
  9 11  1  0  0  0  0 
 11 12  1  0  0  0  0 
 12 13  1  0  0  0  0 
 13 14  1  0  0  0  0 
 14 15  2  0  0  0  0 
M  END
> <Name>
10-Undecenoic acid, ethyl ester

> <Source>
NIST2DMolFile

> <Tox>
264.5

> <CAS>
692-86-4

$$$$

  CDK

  9  8  0  0  0  0  0  0  0  0999 V2000
    3.4534   -1.3330    0.0000 C   0  0  0  0  0  0  0  0  0  0  0  0
    4.6068   -1.9960    0.0000 N   0  0  0  0  0  0  0  0  0  0  0  0
    2.2999   -0.6630    0.0000 N   0  0  0  0  0  0  0  0  0  0  0  0
    5.7533   -1.3330    0.0000 C   0  0  0  0  0  0  0  0  0  0  0  0
    1.1534   -1.3330    0.0000 C   0  0  0  0  0  0  0  0  0  0  0  0
    5.7533   -0.0000    0.0000 C   0  0  0  0  0  0  0  0  0  0  0  0
    6.9067   -1.9960    0.0000 C   0  0  0  0  0  0  0  0  0  0  0  0
    1.1534   -2.6591    0.0000 C   0  0  0  0  0  0  0  0  0  0  0  0
    0.0000   -0.6630    0.0000 C   0  0  0  0  0  0  0  0  0  0  0  0
  1  2  2  0  0  0  0 
  1  3  2  0  0  0  0 
  2  4  1  0  0  0  0 
  3  5  1  0  0  0  0 
  4  6  1  0  0  0  0 
  4  7  1  0  0  0  0 
  5  8  1  0  0  0  0 
  5  9  1  0  0  0  0 
M  END
> <Name>
N,N'-METHANETETRAYLBIS-2-PROPANAMINE

> <Source>
DSSTox2DMolFile

> <Tox>
147

> <CAS>
693-13-0

$$$$

  CDK

 11 10  0  0  0  0  0  0  0  0999 V2000
    0.0000   -0.6673    0.0000 C   0  0  0  0  0  0  0  0  0  0  0  0
    1.1505   -0.0000    0.0000 C   0  0  0  0  0  0  0  0  0  0  0  0
    2.3010   -0.6673    0.0000 C   0  0  0  0  0  0  0  0  0  0  0  0
    3.4515   -0.0000    0.0000 C   0  0  0  0  0  0  0  0  0  0  0  0
    4.6020   -0.6673    0.0000 C   0  0  0  0  0  0  0  0  0  0  0  0
    5.7525   -0.0000    0.0000 O   0  0  0  0  0  0  0  0  0  0  0  0
    6.9029   -0.6673    0.0000 C   0  0  0  0  0  0  0  0  0  0  0  0
    8.0534   -0.0000    0.0000 C   0  0  0  0  0  0  0  0  0  0  0  0
    9.2039   -0.6673    0.0000 C   0  0  0  0  0  0  0  0  0  0  0  0
   10.3544   -0.0000    0.0000 C   0  0  0  0  0  0  0  0  0  0  0  0
   11.5049   -0.6673    0.0000 C   0  0  0  0  0  0  0  0  0  0  0  0
  1  2  1  0  0  0  0 
  2  3  1  0  0  0  0 
  3  4  1  0  0  0  0 
  4  5  1  0  0  0  0 
  5  6  1  0  0  0  0 
  6  7  1  0  0  0  0 
  7  8  1  0  0  0  0 
  8  9  1  0  0  0  0 
  9 10  1  0  0  0  0 
 10 11  1  0  0  0  0 
M  END
> <Name>
DI-N-PENTYLETHER

> <Source>
DSSTox2DMolFile

> <Tox>
190

> <CAS>
693-65-2

$$$$

  CDK

  6  6  0  0  0  0  0  0  0  0999 V2000
    0.0000   -2.1113    0.0000 N   0  0  0  0  0  0  0  0  0  0  0  0
    0.4148   -3.3726    0.0000 C   0  0  0  0  0  0  0  0  0  0  0  0
    1.0860   -1.3254    0.0000 C   0  0  0  0  0  0  0  0  0  0  0  0
    1.7437   -3.3726    0.0000 S   0  0  0  0  0  0  0  0  0  0  0  0
    2.1585   -2.1113    0.0000 C   0  0  0  0  0  0  0  0  0  0  0  0
    1.0860   -0.0000    0.0000 C   0  0  0  0  0  0  0  0  0  0  0  0
  1  2  2  0  0  0  0 
  1  3  1  0  0  0  0 
  4  2  1  0  0  0  0 
  3  5  2  0  0  0  0 
  3  6  1  0  0  0  0 
  4  5  1  0  0  0  0 
M  END
> <Name>
4-METHYLTHIAZOLE

> <Source>
DSSTox2DMolFile

> <Tox>
133.3

> <CAS>
693-95-8

$$$$

  CDK

  6  6  0  0  0  0  0  0  0  0999 V2000
    1.7113    3.4472    1.4990 C   0  0  0  0  0  0  0  0  0  0  0  0
    0.8970    2.2126    1.1178 C   0  0  0  0  0  0  0  0  0  0  0  0
    3.1040    3.4087    0.9976 N   0  0  0  0  0  0  0  0  0  0  0  0
    1.6857    0.9560    1.2255 C   0  0  0  0  0  0  0  0  0  0  0  0
    3.8241    2.1908    1.4427 C   0  0  0  0  0  0  0  0  0  0  0  0
    3.0122    0.9425    1.3681 C   0  0  0  0  0  0  0  0  0  0  0  0
  2  1  1  0  0  0  0 
  1  3  1  0  0  0  0 
  4  2  1  0  0  0  0 
  3  5  1  0  0  0  0 
  6  4  2  0  0  0  0 
  5  6  1  0  0  0  0 
M  END
> <Name>
PYRIDINE, 1,2,3,6-TETRAHYDRO-

> <Source>
NIST3DMolFile

> <Tox>
108

> <CAS>
694-05-3

$$$$

  CDK

  9  9  0  0  0  0  0  0  0  0999 V2000
    1.2133    3.5000    0.0000 C   0  0  0  0  0  0  0  0  0  0  0  0
    1.2133    2.1000    0.0000 C   0  0  0  0  0  0  0  0  0  0  0  0
    2.4267    4.2000    0.0000 N   0  0  0  0  0  0  0  0  0  0  0  0
    0.0000    4.2000    0.0000 F   0  0  0  0  0  0  0  0  0  0  0  0
    2.4267    1.4000    0.0000 C   0  0  0  0  0  0  0  0  0  0  0  0
    3.5933    3.5000    0.0000 C   0  0  0  0  0  0  0  0  0  0  0  0
    3.5933    2.1000    0.0000 N   0  0  0  0  0  0  0  0  0  0  0  0
    2.4267    0.0000    0.0000 F   0  0  0  0  0  0  0  0  0  0  0  0
    4.8067    4.2000    0.0000 F   0  0  0  0  0  0  0  0  0  0  0  0
  1  2  2  0  0  0  0 
  1  3  1  0  0  0  0 
  1  4  1  0  0  0  0 
  2  5  1  0  0  0  0 
  6  3  2  0  0  0  0 
  5  7  2  0  0  0  0 
  5  8  1  0  0  0  0 
  7  6  1  0  0  0  0 
  6  9  1  0  0  0  0 
M  END
> <Name>
2,4,6-Trifluoropyrimidine

> <Source>
IndexNet2DMolFile

> <Tox>
98

> <CAS>
696-82-2

$$$$

  CDK

 10 10  0  0  0  0  0  0  0  0999 V2000
    2.4351    1.3915    0.0000 C   0  0  0  0  0  0  0  0  0  0  0  0
    3.1309    0.6958    0.0000 F   0  0  0  0  0  0  0  0  0  0  0  0
    3.1309    2.0873    0.0000 F   0  0  0  0  0  0  0  0  0  0  0  0
    1.7394    0.6958    0.0000 C   0  0  0  0  0  0  0  0  0  0  0  0
    1.6897    2.1370    0.0000 C   0  0  0  0  0  0  0  0  0  0  0  0
    2.4351    0.0000    0.0000 F   0  0  0  0  0  0  0  0  0  0  0  0
    1.0436    0.0000    0.0000 F   0  0  0  0  0  0  0  0  0  0  0  0
    0.9939    1.4412    0.0000 C   0  0  0  0  0  0  0  0  0  0  0  0
    1.6897    3.1309    0.0000 F   0  0  0  0  0  0  0  0  0  0  0  0
    0.0000    1.4412    0.0000 F   0  0  0  0  0  0  0  0  0  0  0  0
  1  2  1  0  0  0  0 
  1  3  1  0  0  0  0 
  1  4  1  0  0  0  0 
  5  1  1  0  0  0  0 
  4  6  1  0  0  0  0 
  4  7  1  0  0  0  0 
  4  8  1  0  0  0  0 
  8  5  2  0  0  0  0 
  5  9  1  0  0  0  0 
  8 10  1  0  0  0  0 
M  END
> <Name>
CYCLOBUTENE, HEXAFLUORO-

> <Source>
NIST2DMolFile

> <Tox>
5.5

> <CAS>
697-11-0

$$$$

  CDK

 10 10  0  0  0  0  0  0  0  0999 V2000
    1.2127    3.4981    0.0000 C   0  0  0  0  0  0  0  0  0  0  0  0
    1.2127    2.0988    0.0000 C   0  0  0  0  0  0  0  0  0  0  0  0
    2.4253    4.1977    0.0000 C   0  0  0  0  0  0  0  0  0  0  0  0
    0.0000    4.2443    0.0000 Cl  0  0  0  0  0  0  0  0  0  0  0  0
    2.4253    1.3992    0.0000 C   0  0  0  0  0  0  0  0  0  0  0  0
    3.6380    3.4981    0.0000 C   0  0  0  0  0  0  0  0  0  0  0  0
    2.4253    5.5969    0.0000 N   0  0  0  0  0  0  0  0  0  0  0  0
    3.6380    2.0988    0.0000 C   0  0  0  0  0  0  0  0  0  0  0  0
    2.4253    0.0000    0.0000 Cl  0  0  0  0  0  0  0  0  0  0  0  0
    4.8506    4.1977    0.0000 Br  0  0  0  0  0  0  0  0  0  0  0  0
  1  2  2  0  0  0  0 
  1  3  1  0  0  0  0 
  1  4  1  0  0  0  0 
  2  5  1  0  0  0  0 
  6  3  2  0  0  0  0 
  3  7  1  0  0  0  0 
  5  8  2  0  0  0  0 
  5  9  1  0  0  0  0 
  8  6  1  0  0  0  0 
  6 10  1  0  0  0  0 
M  END
> <Name>
2-BROMO-4,6-DICHLOROANILINE

> <Source>
IndexNet2DMolFile

> <Tox>
273

> <CAS>
697-86-9

$$$$

  CDK

 10 10  0  0  0  0  0  0  0  0999 V2000
    1.2851    1.8331    0.0004 O   0  0  0  0  0  0  0  0  0  0  0  0
    0.3877    0.8072   -0.0001 C   0  0  0  0  0  0  0  0  0  0  0  0
    0.8180   -0.5196    0.0000 C   0  0  0  0  0  0  0  0  0  0  0  0
   -0.9764    1.0980   -0.0001 C   0  0  0  0  0  0  0  0  0  0  0  0
   -0.1159   -1.5557    0.0000 C   0  0  0  0  0  0  0  0  0  0  0  0
    2.2373   -0.8450    0.0002 C   0  0  0  0  0  0  0  0  0  0  0  0
   -1.9104    0.0619    0.0001 C   0  0  0  0  0  0  0  0  0  0  0  0
   -1.4800   -1.2649    0.0002 C   0  0  0  0  0  0  0  0  0  0  0  0
    3.1234    0.0126   -0.0004 O   0  0  0  0  0  0  0  0  0  0  0  0
   -3.3689    0.3724   -0.0002 C   0  0  0  0  0  0  0  0  0  0  0  0
  1  2  1  0  0  0  0 
  3  2  2  0  0  0  0 
  4  2  1  0  0  0  0 
  3  5  1  0  0  0  0 
  3  6  1  0  0  0  0 
  7  4  2  0  0  0  0 
  8  5  2  0  0  0  0 
  9  6  2  0  0  0  0 
  7  8  1  0  0  0  0 
  7 10  1  0  0  0  0 
M  END
> <Name>
2-Hydroxy-4-methylbenzaldehyde

> <Source>
Chemidplus3DMolFile

> <Tox>
223

> <CAS>
698-27-1

$$$$

  CDK

 10 10  0  0  0  0  0  0  0  0999 V2000
   -1.5310    0.8271   -0.6108 O   0  0  0  0  0  0  0  0  0  0  0  0
   -1.1550   -0.3475   -0.0811 C   0  0  0  0  0  0  0  0  0  0  0  0
   -2.8472    0.9537   -0.2971 C   0  0  0  0  0  0  0  0  0  0  0  0
    0.2911   -0.7090   -0.3044 C   0  0  0  0  0  0  0  0  0  0  0  0
   -2.1568   -0.9874    0.5583 C   0  0  0  0  0  0  0  0  0  0  0  0
   -3.2795   -0.1364    0.4218 C   0  0  0  0  0  0  0  0  0  0  0  0
    1.2297    0.3586    0.2576 C   0  0  0  0  0  0  0  0  0  0  0  0
    2.6937    0.0206    0.0365 C   0  0  0  0  0  0  0  0  0  0  0  0
    3.0645   -1.0197   -0.5051 O   0  0  0  0  0  0  0  0  0  0  0  0
    3.6904    1.0400    0.5242 C   0  0  0  0  0  0  0  0  0  0  0  0
  1  2  1  0  0  0  0 
  1  3  1  0  0  0  0 
  4  2  1  0  0  0  0 
  2  5  2  0  0  0  0 
  6  3  2  0  0  0  0 
  4  7  1  0  0  0  0 
  5  6  1  0  0  0  0 
  7  8  1  0  0  0  0 
  9  8  2  0  0  0  0 
  8 10  1  0  0  0  0 
M  END
> <Name>
2-Butanone, 4-(2-furanyl)-

> <Source>
Chemidplus3DMolFile

> <Tox>
203

> <CAS>
699-17-2

$$$$

  CDK

 11 11  0  0  0  0  0  0  0  0999 V2000
    1.3737    1.5264    0.0000 C   0  0  0  0  0  0  0  0  0  0  0  0
    2.3404    1.5264    0.0000 C   0  0  0  0  0  0  0  0  0  0  0  0
    1.0176    0.5597    0.0000 C   0  0  0  0  0  0  0  0  0  0  0  0
    0.7123    2.2896    0.0000 F   0  0  0  0  0  0  0  0  0  0  0  0
    0.4579    1.2720    0.0000 F   0  0  0  0  0  0  0  0  0  0  0  0
    2.6457    0.5597    0.0000 C   0  0  0  0  0  0  0  0  0  0  0  0
    2.9510    2.2896    0.0000 F   0  0  0  0  0  0  0  0  0  0  0  0
    3.3071    1.2720    0.0000 F   0  0  0  0  0  0  0  0  0  0  0  0
    1.8316    0.0000    0.0000 O   0  0  0  0  0  0  0  0  0  0  0  0
    0.0000    0.2544    0.0000 O   0  0  0  0  0  0  0  0  0  0  0  0
    3.6124    0.2544    0.0000 O   0  0  0  0  0  0  0  0  0  0  0  0
  1  2  1  0  0  0  0 
  3  1  1  0  0  0  0 
  1  4  1  0  0  0  0 
  1  5  1  0  0  0  0 
  2  6  1  0  0  0  0 
  2  7  1  0  0  0  0 
  2  8  1  0  0  0  0 
  9  3  1  0  0  0  0 
  3 10  2  0  0  0  0 
  6  9  1  0  0  0  0 
  6 11  2  0  0  0  0 
M  END
> <Name>
2,5-Furandione, 3,3,4,4-tetrafluorodihydro-

> <Source>
NIST2DMolFile

> <Tox>
54.5

> <CAS>
699-30-9

$$$$

  CDK

 12 13  0  0  0  0  0  0  0  0999 V2000
    2.6780    0.9578   -0.6326 S   0  0  0  0  0  0  0  0  0  0  0  0
    1.2920    0.2253    0.0562 C   0  0  0  0  0  0  0  0  0  0  0  0
    3.6649   -0.3710   -0.1942 C   0  0  0  0  0  0  0  0  0  0  0  0
    0.0429    0.9133    0.0006 C   0  0  0  0  0  0  0  0  0  0  0  0
    1.5772   -1.0047    0.6072 C   0  0  0  0  0  0  0  0  0  0  0  0
    2.9519   -1.3500    0.4622 C   0  0  0  0  0  0  0  0  0  0  0  0
   -0.0121    2.1661   -0.0031 O   0  0  0  0  0  0  0  0  0  0  0  0
   -1.2895    0.2076   -0.0567 C   0  0  0  0  0  0  0  0  0  0  0  0
   -2.6633    0.9642    0.6307 S   0  0  0  0  0  0  0  0  0  0  0  0
   -1.5950   -1.0185   -0.6054 C   0  0  0  0  0  0  0  0  0  0  0  0
   -3.6718   -0.3491    0.1948 C   0  0  0  0  0  0  0  0  0  0  0  0
   -2.9752   -1.3409   -0.4597 C   0  0  0  0  0  0  0  0  0  0  0  0
  1  2  1  0  0  0  0 
  1  3  1  0  0  0  0 
  2  4  1  0  0  0  0 
  2  5  2  0  0  0  0 
  6  3  2  0  0  0  0 
  7  4  2  0  0  0  0 
  8  4  1  0  0  0  0 
  5  6  1  0  0  0  0 
  9  8  1  0  0  0  0 
  8 10  2  0  0  0  0 
  9 11  1  0  0  0  0 
 10 12  1  0  0  0  0 
 12 11  2  0  0  0  0 
M  END
> <Name>
Di-thiophen-2-yl-methanone

> <Source>
Chemidplus3DMolFile

> <Tox>
326

> <CAS>
704-38-1

$$$$

  CDK

 13 13  0  0  0  0  0  0  0  0999 V2000
    0.9947    1.7905    0.0000 C   0  0  0  0  0  0  0  0  0  0  0  0
    1.3926    0.8953    0.0000 C   0  0  0  0  0  0  0  0  0  0  0  0
    1.7408    2.4371    0.0000 C   0  0  0  0  0  0  0  0  0  0  0  0
    0.0000    1.9895    0.0000 Cl  0  0  0  0  0  0  0  0  0  0  0  0
    2.3874    0.9947    0.0000 C   0  0  0  0  0  0  0  0  0  0  0  0
    0.8953    0.0000    0.0000 Cl  0  0  0  0  0  0  0  0  0  0  0  0
    2.5863    1.9397    0.0000 C   0  0  0  0  0  0  0  0  0  0  0  0
    0.9450    3.0837    0.0000 Cl  0  0  0  0  0  0  0  0  0  0  0  0
    2.4868    3.0837    0.0000 Cl  0  0  0  0  0  0  0  0  0  0  0  0
    3.3821    0.9450    0.0000 Cl  0  0  0  0  0  0  0  0  0  0  0  0
    2.1387    0.0000    0.0000 Cl  0  0  0  0  0  0  0  0  0  0  0  0
    2.9345    2.8847    0.0000 Cl  0  0  0  0  0  0  0  0  0  0  0  0
    3.4318    1.3926    0.0000 Cl  0  0  0  0  0  0  0  0  0  0  0  0
  2  1  2  0  0  0  0 
  1  3  1  0  0  0  0 
  1  4  1  0  0  0  0 
  5  2  1  0  0  0  0 
  2  6  1  0  0  0  0 
  3  7  1  0  0  0  0 
  3  8  1  0  0  0  0 
  3  9  1  0  0  0  0 
  7  5  1  0  0  0  0 
  5 10  1  0  0  0  0 
  5 11  1  0  0  0  0 
  7 12  1  0  0  0  0 
  7 13  1  0  0  0  0 
M  END
> <Name>
OCTACHLOROCYCLOPENTENE

> <Source>
NIST2DMolFile

> <Tox>
283

> <CAS>
706-78-5

$$$$

  CDK

 13 13  0  0  0  0  0  0  0  0999 V2000
    1.1394    3.1706    0.0000 F   0  0  0  0  0  0  0  0  0  0  0  0
    1.7339    2.3284    0.0000 C   0  0  0  0  0  0  0  0  0  0  0  0
    2.3284    3.1706    0.0000 F   0  0  0  0  0  0  0  0  0  0  0  0
    2.5265    1.7834    0.0000 C   0  0  0  0  0  0  0  0  0  0  0  0
    0.9413    1.7834    0.0000 C   0  0  0  0  0  0  0  0  0  0  0  0
    3.1210    2.5761    0.0000 F   0  0  0  0  0  0  0  0  0  0  0  0
    3.4678    1.4367    0.0000 F   0  0  0  0  0  0  0  0  0  0  0  0
    2.2293    0.8422    0.0000 C   0  0  0  0  0  0  0  0  0  0  0  0
    0.3468    2.5761    0.0000 F   0  0  0  0  0  0  0  0  0  0  0  0
    0.0000    1.4367    0.0000 F   0  0  0  0  0  0  0  0  0  0  0  0
    1.2385    0.8422    0.0000 C   0  0  0  0  0  0  0  0  0  0  0  0
    2.8238    0.0000    0.0000 Cl  0  0  0  0  0  0  0  0  0  0  0  0
    0.6440    0.0000    0.0000 Cl  0  0  0  0  0  0  0  0  0  0  0  0
  1  2  1  0  0  0  0 
  2  3  1  0  0  0  0 
  2  4  1  0  0  0  0 
  5  2  1  0  0  0  0 
  4  6  1  0  0  0  0 
  4  7  1  0  0  0  0 
  4  8  1  0  0  0  0 
  5  9  1  0  0  0  0 
  5 10  1  0  0  0  0 
 11  5  1  0  0  0  0 
  8 11  2  0  0  0  0 
  8 12  1  0  0  0  0 
 11 13  1  0  0  0  0 
M  END
> <Name>
Cyclopentene, 1,2-dichloro-3,3,4,4,5,5-hexafluor

> <Source>
NIST2DMolFile

> <Tox>
90.7

> <CAS>
706-79-6

$$$$

  CDK

  6  5  0  0  0  0  0  0  0  0999 V2000
    3.3247   -0.0000    0.0000 C   0  0  0  0  0  0  0  0  0  0  0  0
    1.9948   -0.0000    0.0000 C   0  0  0  0  0  0  0  0  0  0  0  0
    1.3299   -1.1537    0.0000 C   0  0  0  0  0  0  0  0  0  0  0  0
    0.0000   -1.1537    0.0000 Cl  0  0  0  0  0  0  0  0  0  0  0  0
    1.9948   -2.3040    0.0000 C   0  0  0  0  0  0  0  0  0  0  0  0
    3.3247   -2.3040    0.0000 Cl  0  0  0  0  0  0  0  0  0  0  0  0
  1  2  2  0  0  0  0 
  2  3  1  0  0  0  0 
  3  4  1  0  0  0  0 
  3  5  1  0  0  0  0 
  5  6  1  0  0  0  0 
M  END
> <Name>
3,4-DICHLORO-1-BUTENE

> <Source>
DSSTox2DMolFile

> <Tox>
116

> <CAS>
760-23-6

$$$$

  CDK

  8  7  0  0  0  0  0  0  0  0999 V2000
    0.2261   -1.6493   -0.0033 O   0  0  0  0  0  0  0  0  0  0  0  0
    0.3217   -0.4191   -0.0002 C   0  0  0  0  0  0  0  0  0  0  0  0
    1.5461    0.2577   -0.0030 N   0  0  0  0  0  0  0  0  0  0  0  0
   -0.9276    0.4521    0.0087 C   0  0  0  0  0  0  0  0  0  0  0  0
    1.7088    1.7098    0.0006 C   0  0  0  0  0  0  0  0  0  0  0  0
    2.7883   -0.5051   -0.0018 C   0  0  0  0  0  0  0  0  0  0  0  0
   -2.2166   -0.3695    0.0112 C   0  0  0  0  0  0  0  0  0  0  0  0
   -3.4468    0.5233   -0.0122 C   0  0  0  0  0  0  0  0  0  0  0  0
  1  2  2  0  0  0  0 
  3  2  1  0  0  0  0 
  4  2  1  0  0  0  0 
  3  5  1  0  0  0  0 
  3  6  1  0  0  0  0 
  4  7  1  0  0  0  0 
  7  8  1  0  0  0  0 
M  END
> <Name>
Butanamide, N,N-dimethyl-

> <Source>
Chemidplus3DMolFile

> <Tox>
186

> <CAS>
760-79-2

$$$$

  CDK

  6  5  0  0  0  0  0  0  0  0999 V2000
    3.5168    1.6104    1.2636 C   0  0  0  0  0  0  0  0  0  0  0  0
    4.5665    2.1529    1.1006 C   0  0  0  0  0  0  0  0  0  0  0  0
    2.2552    0.9460    1.4607 C   0  0  0  0  0  0  0  0  0  0  0  0
    5.8269    2.8030    0.9043 C   0  0  0  0  0  0  0  0  0  0  0  0
    1.0712    1.8076    1.0358 C   0  0  0  0  0  0  0  0  0  0  0  0
    0.8497    2.9784    1.9665 C   0  0  0  0  0  0  0  0  0  0  0  0
  1  2  3  0  0  0  0 
  1  3  1  0  0  0  0 
  2  4  1  0  0  0  0 
  3  5  1  0  0  0  0 
  5  6  1  0  0  0  0 
M  END
> <Name>
2-HEXYNE

> <Source>
NIST3DMolFile

> <Tox>
84.5

> <CAS>
764-35-2

$$$$

  CDK

 10  9  0  0  0  0  0  0  0  0999 V2000
    7.1682    0.7505    0.9277 C   0  0  0  0  0  0  0  0  0  0  0  0
    5.9345    1.6385    0.9422 C   0  0  0  0  0  0  0  0  0  0  0  0
    8.4428    1.5790    0.9246 C   0  0  0  0  0  0  0  0  0  0  0  0
    4.6589    0.8118    0.9613 C   0  0  0  0  0  0  0  0  0  0  0  0
    9.6753    0.6823    0.8994 C   0  0  0  0  0  0  0  0  0  0  0  0
    3.4253    1.6997    0.9727 C   0  0  0  0  0  0  0  0  0  0  0  0
   10.8896    1.4561    0.9058 C   0  0  0  0  0  0  0  0  0  0  0  0
    2.1482    0.8749    0.9900 C   0  0  0  0  0  0  0  0  0  0  0  0
   11.8968    2.0921    0.9113 C   0  0  0  0  0  0  0  0  0  0  0  0
    0.9199    1.7564    1.0006 C   0  0  0  0  0  0  0  0  0  0  0  0
  1  2  1  0  0  0  0 
  1  3  1  0  0  0  0 
  2  4  1  0  0  0  0 
  3  5  1  0  0  0  0 
  4  6  1  0  0  0  0 
  5  7  1  0  0  0  0 
  6  8  1  0  0  0  0 
  7  9  3  0  0  0  0 
  8 10  1  0  0  0  0 
M  END
> <Name>
1-Decyne

> <Source>
NIST3DMolFile

> <Tox>
174

> <CAS>
764-93-2

$$$$

  CDK

 11 10  0  0  0  0  0  0  0  0999 V2000
   -2.0923   -0.1864    0.0274 C   0  0  0  0  0  0  0  0  0  0  0  0
   -3.5668    0.1474   -0.2075 C   0  0  0  0  0  0  0  0  0  0  0  0
   -1.1776    0.8704   -0.5951 C   0  0  0  0  0  0  0  0  0  0  0  0
   -4.4810   -0.9249    0.3849 C   0  0  0  0  0  0  0  0  0  0  0  0
    0.2701    0.5247   -0.3921 C   0  0  0  0  0  0  0  0  0  0  0  0
   -5.9462   -0.6138    0.1245 C   0  0  0  0  0  0  0  0  0  0  0  0
    1.1450    1.3288    0.2307 C   0  0  0  0  0  0  0  0  0  0  0  0
    2.6069    1.0736    0.4839 C   0  0  0  0  0  0  0  0  0  0  0  0
    3.2296   -0.2193   -0.0579 C   0  0  0  0  0  0  0  0  0  0  0  0
    4.7185   -0.3513    0.2735 C   0  0  0  0  0  0  0  0  0  0  0  0
    5.2938   -1.6491   -0.2723 C   0  0  0  0  0  0  0  0  0  0  0  0
  1  2  1  0  0  0  0 
  1  3  1  0  0  0  0 
  2  4  1  0  0  0  0 
  3  5  1  0  0  0  0 
  4  6  1  0  0  0  0 
  5  7  2  0  0  0  0 
  8  7  1  0  0  0  0 
  9  8  1  0  0  0  0 
  9 10  1  0  0  0  0 
 10 11  1  0  0  0  0 
M  END
> <Name>
5-UNDECENE, (E)-

> <Source>
Chemidplus3DMolFile

> <Tox>
192

> <CAS>
764-97-6

$$$$

  CDK

  4  4  0  0  0  0  0  0  0  0999 V2000
    0.2082    0.0004   -0.4894 C   0  0  0  0  0  0  0  0  0  0  0  0
   -0.9440   -0.7485    0.1309 C   0  0  0  0  0  0  0  0  0  0  0  0
   -0.9441    0.7484    0.1319 C   0  0  0  0  0  0  0  0  0  0  0  0
    1.4833    0.0003    0.2325 N   0  0  0  0  0  0  0  0  0  0  0  0
  1  2  1  0  0  0  0 
  1  3  1  0  0  0  0 
  1  4  1  0  0  0  0 
  2  3  1  0  0  0  0 
M  END
> <Name>
CYCLOPROPANAMINE

> <Source>
DougDB3DMolFile

> <Tox>
50.5

> <CAS>
765-30-0

$$$$

  CDK

  7  7  0  0  0  0  0  0  0  0999 V2000
    4.2038    2.0979    3.8827 C   0  0  0  0  0  0  0  0  0  0  0  0
    2.7931    1.7028    4.3448 C   0  0  0  0  0  0  0  0  0  0  0  0
    4.2060    1.9859    2.3508 C   0  0  0  0  0  0  0  0  0  0  0  0
    2.0548    1.3639    3.0865 C   0  0  0  0  0  0  0  0  0  0  0  0
    2.8278    1.5195    1.9954 C   0  0  0  0  0  0  0  0  0  0  0  0
    0.6502    0.9196    3.1028 C   0  0  0  0  0  0  0  0  0  0  0  0
    2.4230    1.2780    0.5993 C   0  0  0  0  0  0  0  0  0  0  0  0
  2  1  1  0  0  0  0 
  1  3  1  0  0  0  0 
  4  2  1  0  0  0  0 
  3  5  1  0  0  0  0 
  5  4  2  0  0  0  0 
  4  6  1  0  0  0  0 
  5  7  1  0  0  0  0 
M  END
> <Name>
1,2-Dimethyl-cyclopentene

> <Source>
NIST3DMolFile

> <Tox>
105.8

> <CAS>
765-47-9

$$$$

  CDK

  8  8  0  0  0  0  0  0  0  0999 V2000
    1.5324    2.6051    0.0000 C   0  0  0  0  0  0  0  0  0  0  0  0
    2.5029    2.6051    0.0000 C   0  0  0  0  0  0  0  0  0  0  0  0
    1.0216    1.7367    0.0000 C   0  0  0  0  0  0  0  0  0  0  0  0
    3.0138    1.7367    0.0000 C   0  0  0  0  0  0  0  0  0  0  0  0
    1.5324    0.8684    0.0000 C   0  0  0  0  0  0  0  0  0  0  0  0
    0.0000    1.7367    0.0000 O   0  0  0  0  0  0  0  0  0  0  0  0
    2.5029    0.8684    0.0000 C   0  0  0  0  0  0  0  0  0  0  0  0
    1.0216    0.0000    0.0000 O   0  0  0  0  0  0  0  0  0  0  0  0
  2  1  1  0  0  0  0 
  1  3  1  0  0  0  0 
  4  2  1  0  0  0  0 
  3  5  1  0  0  0  0 
  3  6  2  0  0  0  0 
  7  4  1  0  0  0  0 
  5  7  1  0  0  0  0 
  5  8  2  0  0  0  0 
M  END
> <Name>
1,2-Cyclohexanedione

> <Source>
NIST2DMolFile

> <Tox>
194

> <CAS>
765-87-7

$$$$

  CDK

  8  8  0  0  0  0  0  0  0  0999 V2000
    2.0411    1.7350    0.0000 C   0  0  0  0  0  0  0  0  0  0  0  0
    1.5309    0.9185    0.0000 N   0  0  0  0  0  0  0  0  0  0  0  0
    3.0617    1.7350    0.0000 C   0  0  0  0  0  0  0  0  0  0  0  0
    2.0411    0.0510    0.0000 C   0  0  0  0  0  0  0  0  0  0  0  0
    0.5103    0.9185    0.0000 C   0  0  0  0  0  0  0  0  0  0  0  0
    3.5210    0.9185    0.0000 C   0  0  0  0  0  0  0  0  0  0  0  0
    3.0617    0.0510    0.0000 C   0  0  0  0  0  0  0  0  0  0  0  0
    0.0000    0.0000    0.0000 C   0  0  0  0  0  0  0  0  0  0  0  0
  1  2  1  0  0  0  0 
  3  1  1  0  0  0  0 
  2  4  1  0  0  0  0 
  2  5  1  0  0  0  0 
  6  3  1  0  0  0  0 
  4  7  1  0  0  0  0 
  5  8  1  0  0  0  0 
  7  6  1  0  0  0  0 
M  END
> <Name>
PIPERIDINE, 1-ETHYL-

> <Source>
NIST2DMolFile

> <Tox>
130.8

> <CAS>
766-09-6

$$$$

  CDK

  9  9  0  0  0  0  0  0  0  0999 V2000
    0.0000    0.0000    0.0000 O   0  0  0  0  0  0  0  0  0  0  0  0
   -0.9200    0.0600   -0.7800 C   0  0  0  0  0  0  0  0  0  0  0  0
   -2.0800    0.7000   -0.4400 N   0  0  0  0  0  0  0  0  0  0  0  0
   -2.2000    1.3000    0.9000 C   0  0  0  0  0  0  0  0  0  0  0  0
   -3.6800    1.2800    1.3800 C   0  0  0  0  0  0  0  0  0  0  0  0
   -1.6400    2.7400    0.9200 C   0  0  0  0  0  0  0  0  0  0  0  0
   -4.5600    2.2600    0.6200 C   0  0  0  0  0  0  0  0  0  0  0  0
   -2.5400    3.7200    0.1400 C   0  0  0  0  0  0  0  0  0  0  0  0
   -3.9800    3.6800    0.6400 C   0  0  0  0  0  0  0  0  0  0  0  0
  1  2  2  0  0  0  0 
  2  3  1  0  0  0  0 
  3  4  1  0  0  0  0 
  4  5  1  0  0  0  0 
  4  6  1  0  0  0  0 
  5  7  1  0  0  0  0 
  8  6  1  0  0  0  0 
  7  9  1  0  0  0  0 
  9  8  1  0  0  0  0 
M  END
> <Name>
FORMAMIDE, N-CYCLOHEXYL-

> <Source>
NIH3DMolFile

> <Tox>
260

> <CAS>
766-93-8

$$$$

  CDK

  9  9  0  0  0  0  0  0  0  0999 V2000
    1.0078    0.0000    0.0000 C   0  0  0  0  0  0  0  0  0  0  0  0
    1.5116    0.8566    0.0000 O   0  0  0  0  0  0  0  0  0  0  0  0
    0.0000    0.0000    0.0000 C   0  0  0  0  0  0  0  0  0  0  0  0
    2.5194    0.8566    0.0000 C   0  0  0  0  0  0  0  0  0  0  0  0
    3.0233    1.7132    0.0000 C   0  0  0  0  0  0  0  0  0  0  0  0
    3.0233    0.0000    0.0000 C   0  0  0  0  0  0  0  0  0  0  0  0
    4.0310    1.7132    0.0000 C   0  0  0  0  0  0  0  0  0  0  0  0
    4.0310    0.0000    0.0000 C   0  0  0  0  0  0  0  0  0  0  0  0
    4.5349    0.8566    0.0000 C   0  0  0  0  0  0  0  0  0  0  0  0
  1  2  1  0  0  0  0 
  1  3  2  0  0  0  0 
  2  4  1  0  0  0  0 
  5  4  2  0  0  0  0 
  4  6  1  0  0  0  0 
  7  5  1  0  0  0  0 
  6  8  2  0  0  0  0 
  9  7  2  0  0  0  0 
  8  9  1  0  0  0  0 
M  END
> <Name>
BENZENE, (ETHENYLOXY)-

> <Source>
NIST2DMolFile

> <Tox>
155.5

> <CAS>
766-94-9

$$$$

  CDK

 10 10  0  0  0  0  0  0  0  0999 V2000
    1.0056    0.0000    0.0000 C   0  0  0  0  0  0  0  0  0  0  0  0
    1.0056    1.0056    0.0000 Si  0  0  0  0  0  0  0  0  0  0  0  0
    1.0056    2.0111    0.0000 C   0  0  0  0  0  0  0  0  0  0  0  0
    0.0000    1.0056    0.0000 C   0  0  0  0  0  0  0  0  0  0  0  0
    2.0111    1.0056    0.0000 C   0  0  0  0  0  0  0  0  0  0  0  0
    2.5139    1.8603    0.0000 C   0  0  0  0  0  0  0  0  0  0  0  0
    2.5139    0.1508    0.0000 C   0  0  0  0  0  0  0  0  0  0  0  0
    3.5195    1.8603    0.0000 C   0  0  0  0  0  0  0  0  0  0  0  0
    3.5195    0.1508    0.0000 C   0  0  0  0  0  0  0  0  0  0  0  0
    4.0223    1.0056    0.0000 C   0  0  0  0  0  0  0  0  0  0  0  0
  1  2  1  0  0  0  0 
  2  3  1  0  0  0  0 
  2  4  1  0  0  0  0 
  2  5  1  0  0  0  0 
  6  5  2  0  0  0  0 
  5  7  1  0  0  0  0 
  8  6  1  0  0  0  0 
  7  9  2  0  0  0  0 
 10  8  2  0  0  0  0 
  9 10  1  0  0  0  0 
M  END
> <Name>
SILANE, TRIMETHYL PHENYL

> <Source>
NIST2DMolFile

> <Tox>
169.5

> <CAS>
768-32-1

$$$$

  CDK

 11 11  0  0  0  0  0  0  0  0999 V2000
    0.9251    1.7435    2.2623 C   0  0  0  0  0  0  0  0  0  0  0  0
    2.0024    1.0917    2.6860 C   0  0  0  0  0  0  0  0  0  0  0  0
    3.2560    1.7585    3.0575 C   0  0  0  0  0  0  0  0  0  0  0  0
    3.6517    1.7590    4.4041 C   0  0  0  0  0  0  0  0  0  0  0  0
    4.0702    2.3697    2.0931 C   0  0  0  0  0  0  0  0  0  0  0  0
    2.8078    1.1069    5.4400 C   0  0  0  0  0  0  0  0  0  0  0  0
    4.8476    2.3720    4.7763 C   0  0  0  0  0  0  0  0  0  0  0  0
    3.6822    2.3872    0.6580 C   0  0  0  0  0  0  0  0  0  0  0  0
    5.2648    2.9741    2.4822 C   0  0  0  0  0  0  0  0  0  0  0  0
    5.6565    2.9824    3.8200 C   0  0  0  0  0  0  0  0  0  0  0  0
    6.9263    3.6458    4.2144 C   0  0  0  0  0  0  0  0  0  0  0  0
  1  2  2  0  0  0  0 
  2  3  1  0  0  0  0 
  4  3  2  0  0  0  0 
  3  5  1  0  0  0  0 
  4  6  1  0  0  0  0 
  7  4  1  0  0  0  0 
  5  8  1  0  0  0  0 
  5  9  2  0  0  0  0 
 10  7  2  0  0  0  0 
  9 10  1  0  0  0  0 
 10 11  1  0  0  0  0 
M  END
> <Name>
BENZENE, 2-ETHENYL-1,3,5-TRIMETHYL-

> <Source>
NIST3DMolFile

> <Tox>
209

> <CAS>
769-25-5

$$$$

  CDK

 11 11  0  0  0  0  0  0  0  0999 V2000
    3.6376   -1.1804   -0.0253 Cl  0  0  0  0  0  0  0  0  0  0  0  0
    2.1031    0.0958    0.1412 P   0  0  0  0  0  0  0  0  0  0  0  0
    2.1571    1.1494   -1.5604 Cl  0  0  0  0  0  0  0  0  0  0  0  0
    0.8067   -0.8613    0.0209 O   0  0  0  0  0  0  0  0  0  0  0  0
    2.2077    0.9368    1.3792 O   0  0  0  0  0  0  0  0  0  0  0  0
   -0.4899   -0.4474    0.0138 C   0  0  0  0  0  0  0  0  0  0  0  0
   -0.7890    0.9111    0.1163 C   0  0  0  0  0  0  0  0  0  0  0  0
   -1.5196   -1.3819   -0.0952 C   0  0  0  0  0  0  0  0  0  0  0  0
   -2.1178    1.3352    0.1101 C   0  0  0  0  0  0  0  0  0  0  0  0
   -2.8485   -0.9579   -0.1016 C   0  0  0  0  0  0  0  0  0  0  0  0
   -3.1475    0.4007    0.0010 C   0  0  0  0  0  0  0  0  0  0  0  0
  1  2  1  0  0  0  0 
  3  2  1  0  0  0  0 
  2  4  1  0  0  0  0 
  2  5  2  0  0  0  0 
  4  6  1  0  0  0  0 
  6  7  2  0  0  0  0 
  6  8  1  0  0  0  0 
  7  9  1  0  0  0  0 
  8 10  2  0  0  0  0 
  9 11  2  0  0  0  0 
 10 11  1  0  0  0  0 
M  END
> <Name>
PHENYL DICHLOROPHOSPHATE

> <Source>
Chemidplus3DMolFile

> <Tox>
242

> <CAS>
770-12-7

$$$$

  CDK

 12 12  0  0  0  0  0  0  0  0999 V2000
    0.9948    1.7409    0.0000 C   0  0  0  0  0  0  0  0  0  0  0  0
    0.0000    1.7409    0.0000 C   0  0  0  0  0  0  0  0  0  0  0  0
    1.4922    2.5864    0.0000 C   0  0  0  0  0  0  0  0  0  0  0  0
    1.4922    0.8953    0.0000 C   0  0  0  0  0  0  0  0  0  0  0  0
    0.9948    3.4818    0.0000 F   0  0  0  0  0  0  0  0  0  0  0  0
    2.4870    2.5864    0.0000 C   0  0  0  0  0  0  0  0  0  0  0  0
    0.9948    0.0000    0.0000 F   0  0  0  0  0  0  0  0  0  0  0  0
    2.4870    0.8953    0.0000 C   0  0  0  0  0  0  0  0  0  0  0  0
    2.9844    3.4818    0.0000 F   0  0  0  0  0  0  0  0  0  0  0  0
    2.9844    1.7409    0.0000 C   0  0  0  0  0  0  0  0  0  0  0  0
    2.9844    0.0000    0.0000 F   0  0  0  0  0  0  0  0  0  0  0  0
    3.9792    1.7409    0.0000 F   0  0  0  0  0  0  0  0  0  0  0  0
  1  2  1  0  0  0  0 
  3  1  2  0  0  0  0 
  1  4  1  0  0  0  0 
  3  5  1  0  0  0  0 
  6  3  1  0  0  0  0 
  4  7  1  0  0  0  0 
  4  8  2  0  0  0  0 
  6  9  1  0  0  0  0 
 10  6  2  0  0  0  0 
  8 10  1  0  0  0  0 
  8 11  1  0  0  0  0 
 10 12  1  0  0  0  0 
M  END
> <Name>
N-METHYLPENTAFLUOROBENZENE

> <Source>
NIST2DMolFile

> <Tox>
117.5

> <CAS>
771-56-2

$$$$

  CDK

 12 12  0  0  0  0  0  0  0  0999 V2000
    1.5266    2.5444    0.0000 C   0  0  0  0  0  0  0  0  0  0  0  0
    1.0178    1.6793    0.0000 C   0  0  0  0  0  0  0  0  0  0  0  0
    2.4935    2.5444    0.0000 C   0  0  0  0  0  0  0  0  0  0  0  0
    1.0178    3.4604    0.0000 F   0  0  0  0  0  0  0  0  0  0  0  0
    1.5266    0.8651    0.0000 C   0  0  0  0  0  0  0  0  0  0  0  0
    0.0000    1.6793    0.0000 F   0  0  0  0  0  0  0  0  0  0  0  0
    3.0024    3.4604    0.0000 F   0  0  0  0  0  0  0  0  0  0  0  0
    3.0024    1.6793    0.0000 C   0  0  0  0  0  0  0  0  0  0  0  0
    2.4935    0.8651    0.0000 C   0  0  0  0  0  0  0  0  0  0  0  0
    1.0178    0.0000    0.0000 S   0  0  0  0  0  0  0  0  0  0  0  0
    4.0202    1.6793    0.0000 F   0  0  0  0  0  0  0  0  0  0  0  0
    3.0024    0.0000    0.0000 F   0  0  0  0  0  0  0  0  0  0  0  0
  1  2  2  0  0  0  0 
  3  1  1  0  0  0  0 
  1  4  1  0  0  0  0 
  2  5  1  0  0  0  0 
  2  6  1  0  0  0  0 
  3  7  1  0  0  0  0 
  8  3  2  0  0  0  0 
  5  9  2  0  0  0  0 
  5 10  1  0  0  0  0 
  9  8  1  0  0  0  0 
  8 11  1  0  0  0  0 
  9 12  1  0  0  0  0 
M  END
> <Name>
Pentafluorothiophenol

> <Source>
NIST2DMolFile

> <Tox>
143

> <CAS>
771-62-0

$$$$

  CDK

 12 13  0  0  0  0  0  0  0  0999 V2000
    1.4985    1.7483    0.0000 C   0  0  0  0  0  0  0  0  0  0  0  0
    0.4995    1.7483    0.0000 C   0  0  0  0  0  0  0  0  0  0  0  0
    1.9980    0.8492    0.0000 C   0  0  0  0  0  0  0  0  0  0  0  0
    0.0000    0.8492    0.0000 O   0  0  0  0  0  0  0  0  0  0  0  0
    1.4985    0.0000    0.0000 O   0  0  0  0  0  0  0  0  0  0  0  0
    2.9471    0.8492    0.0000 C   0  0  0  0  0  0  0  0  0  0  0  0
    0.4995    0.0000    0.0000 C   0  0  0  0  0  0  0  0  0  0  0  0
    3.4466    0.0000    0.0000 C   0  0  0  0  0  0  0  0  0  0  0  0
    3.4466    1.7483    0.0000 C   0  0  0  0  0  0  0  0  0  0  0  0
    4.4456    0.0000    0.0000 C   0  0  0  0  0  0  0  0  0  0  0  0
    4.4456    1.7483    0.0000 C   0  0  0  0  0  0  0  0  0  0  0  0
    4.9451    0.8492    0.0000 C   0  0  0  0  0  0  0  0  0  0  0  0
  1  2  1  0  0  0  0 
  3  1  1  0  0  0  0 
  2  4  1  0  0  0  0 
  5  3  1  0  0  0  0 
  3  6  1  0  0  0  0 
  4  7  1  0  0  0  0 
  7  5  1  0  0  0  0 
  6  8  2  0  0  0  0 
  9  6  1  0  0  0  0 
  8 10  1  0  0  0  0 
 11  9  2  0  0  0  0 
 10 12  2  0  0  0  0 
 12 11  1  0  0  0  0 
M  END
> <Name>
1,3-Dioxane, 4-phenyl-

> <Source>
NIST2DMolFile

> <Tox>
247

> <CAS>
772-00-9

$$$$

  CDK

 16 17  0  0  0  0  0  0  0  0999 V2000
    0.0212    0.7671   -0.6949 C   0  0  0  0  0  0  0  0  0  0  0  0
    0.0456    2.0626    0.0745 C   0  0  0  0  0  0  0  0  0  0  0  0
    1.2241   -0.0609   -0.3228 C   0  0  0  0  0  0  0  0  0  0  0  0
   -1.2356    0.0066   -0.3586 C   0  0  0  0  0  0  0  0  0  0  0  0
    0.7400    3.2690   -0.5030 C   0  0  0  0  0  0  0  0  0  0  0  0
   -0.4913    2.1340    1.1539 O   0  0  0  0  0  0  0  0  0  0  0  0
    2.0421   -0.5746   -1.3114 C   0  0  0  0  0  0  0  0  0  0  0  0
    1.5127   -0.3019    1.0077 C   0  0  0  0  0  0  0  0  0  0  0  0
   -2.0963   -0.3860   -1.3661 C   0  0  0  0  0  0  0  0  0  0  0  0
   -1.5248   -0.3031    0.9575 C   0  0  0  0  0  0  0  0  0  0  0  0
    3.1456   -1.3343   -0.9700 C   0  0  0  0  0  0  0  0  0  0  0  0
    2.6159   -1.0613    1.3489 C   0  0  0  0  0  0  0  0  0  0  0  0
   -3.2494   -1.0837   -1.0575 C   0  0  0  0  0  0  0  0  0  0  0  0
   -2.6775   -1.0006    1.2660 C   0  0  0  0  0  0  0  0  0  0  0  0
    3.4312   -1.5796    0.3599 C   0  0  0  0  0  0  0  0  0  0  0  0
   -3.5412   -1.3888    0.2585 C   0  0  0  0  0  0  0  0  0  0  0  0
  1  2  1  0  0  0  0 
  1  3  1  0  0  0  0 
  1  4  1  0  0  0  0 
  2  5  1  0  0  0  0 
  2  6  2  0  0  0  0 
  3  7  2  0  0  0  0 
  3  8  1  0  0  0  0 
  4  9  2  0  0  0  0 
  4 10  1  0  0  0  0 
  7 11  1  0  0  0  0 
  8 12  2  0  0  0  0 
  9 13  1  0  0  0  0 
 10 14  2  0  0  0  0 
 11 15  2  0  0  0  0 
 12 15  1  0  0  0  0 
 13 16  2  0  0  0  0 
 14 16  1  0  0  0  0 
M  END
> <Name>
2-Propanone, 1,1-diphenyl-

> <Source>
NIH3DMolFile

> <Tox>
307

> <CAS>
781-35-1

$$$$

  CDK

 26 25  0  0  0  0  0  0  0  0999 V2000
    0.0000    1.2127    0.0000 Br  0  0  0  0  0  0  0  0  0  0  0  0
    1.1194    1.9123    0.0000 C   0  0  0  0  0  0  0  0  0  0  0  0
    2.3320    1.2127    0.0000 C   0  0  0  0  0  0  0  0  0  0  0  0
    1.8190    3.0783    0.0000 F   0  0  0  0  0  0  0  0  0  0  0  0
    0.4198    3.0783    0.0000 F   0  0  0  0  0  0  0  0  0  0  0  0
    3.5447    1.9123    0.0000 C   0  0  0  0  0  0  0  0  0  0  0  0
    1.6324    0.0000    0.0000 F   0  0  0  0  0  0  0  0  0  0  0  0
    3.0316    0.0000    0.0000 F   0  0  0  0  0  0  0  0  0  0  0  0
    4.7574    1.2127    0.0000 C   0  0  0  0  0  0  0  0  0  0  0  0
    4.2443    3.0783    0.0000 F   0  0  0  0  0  0  0  0  0  0  0  0
    2.8451    3.0783    0.0000 F   0  0  0  0  0  0  0  0  0  0  0  0
    5.9700    1.9123    0.0000 C   0  0  0  0  0  0  0  0  0  0  0  0
    4.0577    0.0000    0.0000 F   0  0  0  0  0  0  0  0  0  0  0  0
    5.4570    0.0000    0.0000 F   0  0  0  0  0  0  0  0  0  0  0  0
    7.1827    1.2127    0.0000 C   0  0  0  0  0  0  0  0  0  0  0  0
    6.6696    3.0783    0.0000 F   0  0  0  0  0  0  0  0  0  0  0  0
    5.2704    3.0783    0.0000 F   0  0  0  0  0  0  0  0  0  0  0  0
    8.3953    1.9123    0.0000 C   0  0  0  0  0  0  0  0  0  0  0  0
    6.4831    0.0000    0.0000 F   0  0  0  0  0  0  0  0  0  0  0  0
    7.8823    0.0000    0.0000 F   0  0  0  0  0  0  0  0  0  0  0  0
    9.6080    1.2127    0.0000 C   0  0  0  0  0  0  0  0  0  0  0  0
    9.0949    3.0783    0.0000 F   0  0  0  0  0  0  0  0  0  0  0  0
    7.6957    3.0783    0.0000 F   0  0  0  0  0  0  0  0  0  0  0  0
   10.8207    1.9123    0.0000 Br  0  0  0  0  0  0  0  0  0  0  0  0
    8.9084    0.0000    0.0000 F   0  0  0  0  0  0  0  0  0  0  0  0
   10.3076    0.0000    0.0000 F   0  0  0  0  0  0  0  0  0  0  0  0
  1  2  1  0  0  0  0 
  2  3  1  0  0  0  0 
  2  4  1  0  0  0  0 
  2  5  1  0  0  0  0 
  3  6  1  0  0  0  0 
  3  7  1  0  0  0  0 
  3  8  1  0  0  0  0 
  6  9  1  0  0  0  0 
  6 10  1  0  0  0  0 
  6 11  1  0  0  0  0 
  9 12  1  0  0  0  0 
  9 13  1  0  0  0  0 
  9 14  1  0  0  0  0 
 12 15  1  0  0  0  0 
 12 16  1  0  0  0  0 
 12 17  1  0  0  0  0 
 15 18  1  0  0  0  0 
 15 19  1  0  0  0  0 
 15 20  1  0  0  0  0 
 18 21  1  0  0  0  0 
 18 22  1  0  0  0  0 
 18 23  1  0  0  0  0 
 21 24  1  0  0  0  0 
 21 25  1  0  0  0  0 
 21 26  1  0  0  0  0 
M  END
> <Name>
1,8-Dibromohexadecafluorooctane

> <Source>
IndexNet2DMolFile

> <Tox>
180

> <CAS>
812-58-8

$$$$

  CDK

  7  6  0  0  0  0  0  0  0  0999 V2000
    1.6373   -0.0000    0.0000 O   0  0  0  0  0  0  0  0  0  0  0  0
    2.3034   -1.1517    0.0000 P   0  0  0  0  0  0  0  0  0  0  0  0
    2.9694   -2.3034    0.0000 O   0  0  0  0  0  0  0  0  0  0  0  0
    1.1517   -1.8178    0.0000 O   0  0  0  0  0  0  0  0  0  0  0  0
    3.4550   -0.4856    0.0000 O   0  0  0  0  0  0  0  0  0  0  0  0
    4.2973   -2.3034    0.0000 C   0  0  0  0  0  0  0  0  0  0  0  0
    0.0000   -1.1517    0.0000 C   0  0  0  0  0  0  0  0  0  0  0  0
  1  2  2  0  0  0  0 
  2  3  1  0  0  0  0 
  2  4  1  0  0  0  0 
  2  5  1  0  0  0  0 
  3  6  1  0  0  0  0 
  4  7  1  0  0  0  0 
M  END
> <Name>
Dimethyl phosphate

> <Source>
DSSTox2DMolFile

> <Tox>
174

> <CAS>
813-78-5

$$$$

  CDK

  5  4  0  0  0  0  0  0  0  0999 V2000
    0.0000    0.0000    0.0000 C   0  0  0  0  0  0  0  0  0  0  0  0
    1.1800    0.0200   -0.9800 C   0  0  0  0  0  0  0  0  0  0  0  0
    2.2600    1.0200   -0.5600 C   0  0  0  0  0  0  0  0  0  0  0  0
    1.8600   -1.6400   -1.2000 S   0  0  0  0  0  0  0  0  0  0  0  0
    2.9600    0.5800    1.0600 S   0  0  0  0  0  0  0  0  0  0  0  0
  1  2  1  0  0  0  0 
  2  3  1  0  0  0  0 
  2  4  1  0  0  0  0 
  3  5  1  0  0  0  0 
M  END
> <Name>
1,2-Propanedithiol

> <Source>
NIH3DMolFile

> <Tox>
152

> <CAS>
814-67-5

$$$$

  CDK

  5  4  0  0  0  0  0  0  0  0999 V2000
    0.0000    1.0103    0.0000 C   0  0  0  0  0  0  0  0  0  0  0  0
    0.8083    1.5155    0.0000 C   0  0  0  0  0  0  0  0  0  0  0  0
    1.7176    1.0103    0.0000 C   0  0  0  0  0  0  0  0  0  0  0  0
    2.5763    1.5155    0.0000 Cl  0  0  0  0  0  0  0  0  0  0  0  0
    1.7176    0.0000    0.0000 O   0  0  0  0  0  0  0  0  0  0  0  0
  1  2  2  0  0  0  0 
  2  3  1  0  0  0  0 
  3  4  1  0  0  0  0 
  3  5  2  0  0  0  0 
M  END
> <Name>
ACRYLYL CHLORIDE

> <Source>
NIST2DMolFile

> <Tox>
75.5

> <CAS>
814-68-6

$$$$

  CDK

  8  7  0  0  0  0  0  0  0  0999 V2000
    0.1547    1.1610    0.0000 O   0  0  0  0  0  0  0  0  0  0  0  0
    0.5672    0.4465    0.0000 C   0  0  0  0  0  0  0  0  0  0  0  0
    0.1547   -0.2679    0.0000 C   0  0  0  0  0  0  0  0  0  0  0  0
    1.3922    0.4465    0.0000 Cl  0  0  0  0  0  0  0  0  0  0  0  0
   -0.6703   -0.2679    0.0000 C   0  0  0  0  0  0  0  0  0  0  0  0
    0.5672   -0.9824    0.0000 Cl  0  0  0  0  0  0  0  0  0  0  0  0
   -1.0828    0.4465    0.0000 Cl  0  0  0  0  0  0  0  0  0  0  0  0
   -1.0828   -0.9824    0.0000 Cl  0  0  0  0  0  0  0  0  0  0  0  0
  1  2  2  0  0  0  0 
  2  3  1  0  0  0  0 
  2  4  1  0  0  0  0 
  3  5  2  0  0  0  0 
  3  6  1  0  0  0  0 
  5  7  1  0  0  0  0 
  5  8  1  0  0  0  0 
M  END
> <Name>
2-Propenoyl chloride, 2,3,3-trichloro-

> <Source>
Smiles

> <Tox>
158

> <CAS>
815-58-7

$$$$

  CDK

  9  8  0  0  0  0  0  0  0  0999 V2000
    1.1465   -0.4171    0.7738 O   0  0  0  0  0  0  0  0  0  0  0  0
    0.5469   -0.2054   -0.4338 C   0  0  0  0  0  0  0  0  0  0  0  0
    2.4883   -0.9109    0.7168 C   0  0  0  0  0  0  0  0  0  0  0  0
    1.0535   -0.3996   -1.5315 O   0  0  0  0  0  0  0  0  0  0  0  0
   -0.8653    0.3172   -0.2217 C   0  0  0  0  0  0  0  0  0  0  0  0
   -0.8160    1.6520    0.5395 C   0  0  0  0  0  0  0  0  0  0  0  0
   -1.6914   -0.7208    0.5553 C   0  0  0  0  0  0  0  0  0  0  0  0
   -0.0237    2.7218   -0.2012 C   0  0  0  0  0  0  0  0  0  0  0  0
   -1.8388   -2.0372   -0.1972 C   0  0  0  0  0  0  0  0  0  0  0  0
  1  2  1  0  0  0  0 
  1  3  1  0  0  0  0 
  4  2  2  0  0  0  0 
  5  2  1  0  0  0  0 
  5  6  1  0  0  0  0 
  5  7  1  0  0  0  0 
  6  8  1  0  0  0  0 
  7  9  1  0  0  0  0 
M  END
> <Name>
BUTANOIC ACID, 2-ETHYL-, METHYL ESTER

> <Source>
Chemidplus3DMolFile

> <Tox>
137

> <CAS>
816-11-5

$$$$

  CDK

 16 15  0  0  0  0  0  0  0  0999 V2000
    0.0000    0.0000    0.0000 C   0  0  0  0  0  0  0  0  0  0  0  0
   -0.3800   -1.4800   -0.2400 C   0  0  0  0  0  0  0  0  0  0  0  0
    0.7800   -2.3000   -0.7800 C   0  0  0  0  0  0  0  0  0  0  0  0
    0.3600   -3.7400   -1.1400 C   0  0  0  0  0  0  0  0  0  0  0  0
    1.5000   -4.5400   -1.7800 C   0  0  0  0  0  0  0  0  0  0  0  0
    1.0400   -5.8800   -2.3200 C   0  0  0  0  0  0  0  0  0  0  0  0
    2.1400   -6.6400   -3.0600 C   0  0  0  0  0  0  0  0  0  0  0  0
    1.6000   -7.6800   -4.0000 C   0  0  0  0  0  0  0  0  0  0  0  0
    0.9200   -8.6000   -3.5800 O   0  0  0  0  0  0  0  0  0  0  0  0
    1.9200   -7.5600   -5.4600 C   0  0  0  0  0  0  0  0  0  0  0  0
    0.9400   -6.6200   -6.2000 C   0  0  0  0  0  0  0  0  0  0  0  0
    1.1600   -5.1600   -5.8400 C   0  0  0  0  0  0  0  0  0  0  0  0
    0.1800   -4.2200   -6.5800 C   0  0  0  0  0  0  0  0  0  0  0  0
    0.3400   -2.7600   -6.1400 C   0  0  0  0  0  0  0  0  0  0  0  0
   -0.6800   -1.8400   -6.8400 C   0  0  0  0  0  0  0  0  0  0  0  0
   -0.5600   -0.4000   -6.3600 C   0  0  0  0  0  0  0  0  0  0  0  0
  1  2  1  0  0  0  0 
  2  3  1  0  0  0  0 
  3  4  1  0  0  0  0 
  4  5  1  0  0  0  0 
  5  6  1  0  0  0  0 
  6  7  1  0  0  0  0 
  7  8  1  0  0  0  0 
  8  9  2  0  0  0  0 
  8 10  1  0  0  0  0 
 10 11  1  0  0  0  0 
 11 12  1  0  0  0  0 
 12 13  1  0  0  0  0 
 13 14  1  0  0  0  0 
 14 15  1  0  0  0  0 
 15 16  1  0  0  0  0 
M  END
> <Name>
8-PENTADECANONE

> <Source>
NIH3DMolFile

> <Tox>
291

> <CAS>
818-23-5

$$$$

  CDK

  6  5  0  0  0  0  0  0  0  0999 V2000
    0.0000   -0.6630    0.0000 Br  0  0  0  0  0  0  0  0  0  0  0  0
    1.1530   -0.0000    0.0000 C   0  0  0  0  0  0  0  0  0  0  0  0
    2.3060   -0.6630    0.0000 C   0  0  0  0  0  0  0  0  0  0  0  0
    3.4590   -0.0000    0.0000 C   0  0  0  0  0  0  0  0  0  0  0  0
    4.6119   -0.6630    0.0000 C   0  0  0  0  0  0  0  0  0  0  0  0
    5.7649   -0.0000    0.0000 Br  0  0  0  0  0  0  0  0  0  0  0  0
  1  2  1  0  0  0  0 
  2  3  1  0  0  0  0 
  3  4  2  0  0  0  0 
  4  5  1  0  0  0  0 
  5  6  1  0  0  0  0 
M  END
> <Name>
2-Butene, 1,4-dibromo-, (E)-

> <Source>
DSSTox2DMolFile

> <Tox>
203

> <CAS>
821-06-7

$$$$

  CDK

 11 10  0  0  0  0  0  0  0  0999 V2000
    5.4888    2.0232    2.4616 C   0  0  0  0  0  0  0  0  0  0  0  0
    4.0651    2.3982    2.8395 C   0  0  0  0  0  0  0  0  0  0  0  0
    6.3609    1.8544    3.6952 C   0  0  0  0  0  0  0  0  0  0  0  0
    3.1698    2.5881    1.6236 C   0  0  0  0  0  0  0  0  0  0  0  0
    7.7858    1.4824    3.3189 C   0  0  0  0  0  0  0  0  0  0  0  0
    3.3959    3.9231    0.9269 C   0  0  0  0  0  0  0  0  0  0  0  0
    8.6570    1.3054    4.5522 C   0  0  0  0  0  0  0  0  0  0  0  0
    3.0679    5.1170    1.8151 C   0  0  0  0  0  0  0  0  0  0  0  0
   10.0757    0.9386    4.1801 C   0  0  0  0  0  0  0  0  0  0  0  0
    1.6046    5.3760    1.8883 C   0  0  0  0  0  0  0  0  0  0  0  0
    1.0682    6.5735    1.6856 C   0  0  0  0  0  0  0  0  0  0  0  0
  1  2  1  0  0  0  0 
  1  3  1  0  0  0  0 
  2  4  1  0  0  0  0 
  3  5  1  0  0  0  0 
  4  6  1  0  0  0  0 
  5  7  1  0  0  0  0 
  6  8  1  0  0  0  0 
  7  9  1  0  0  0  0 
  8 10  1  0  0  0  0 
 10 11  2  0  0  0  0 
M  END
> <Name>
1-UNDECENE

> <Source>
NIST3DMolFile

> <Tox>
192.7

> <CAS>
821-95-4

$$$$

  CDK

 11 10  0  0  0  0  0  0  0  0999 V2000
    5.3423    0.0519    0.0000 C   0  0  0  0  0  0  0  0  0  0  0  0
    6.2240    0.5187    0.0000 C   0  0  0  0  0  0  0  0  0  0  0  0
    4.5124    0.5187    0.0000 C   0  0  0  0  0  0  0  0  0  0  0  0
    7.1576    0.0519    0.0000 C   0  0  0  0  0  0  0  0  0  0  0  0
    3.5788    0.0519    0.0000 C   0  0  0  0  0  0  0  0  0  0  0  0
    8.0393    0.5187    0.0000 C   0  0  0  0  0  0  0  0  0  0  0  0
    2.6971    0.4668    0.0000 C   0  0  0  0  0  0  0  0  0  0  0  0
    8.9210    0.0519    0.0000 Cl  0  0  0  0  0  0  0  0  0  0  0  0
    1.8153    0.0519    0.0000 C   0  0  0  0  0  0  0  0  0  0  0  0
    0.9336    0.4668    0.0000 C   0  0  0  0  0  0  0  0  0  0  0  0
    0.0000    0.0000    0.0000 Cl  0  0  0  0  0  0  0  0  0  0  0  0
  1  2  1  0  0  0  0 
  1  3  1  0  0  0  0 
  2  4  1  0  0  0  0 
  3  5  1  0  0  0  0 
  4  6  1  0  0  0  0 
  5  7  1  0  0  0  0 
  6  8  1  0  0  0  0 
  7  9  1  0  0  0  0 
  9 10  1  0  0  0  0 
 10 11  1  0  0  0  0 
M  END
> <Name>
Nonane, 1,9-dichloro-

> <Source>
NIST2DMolFile

> <Tox>
260

> <CAS>
821-99-8

$$$$

  CDK

  6  6  0  0  0  0  0  0  0  0999 V2000
    0.0000    0.0000    0.0000 S   0  0  0  0  0  0  0  0  0  0  0  0
   -1.6600   -0.1400    0.1200 C   0  0  0  0  0  0  0  0  0  0  0  0
   -2.3000   -1.6200   -0.2400 S   0  0  0  0  0  0  0  0  0  0  0  0
   -2.4600    1.2400    0.6000 S   0  0  0  0  0  0  0  0  0  0  0  0
   -3.9200   -1.1000    0.2400 C   0  0  0  0  0  0  0  0  0  0  0  0
   -4.0400    0.4600    0.4200 C   0  0  0  0  0  0  0  0  0  0  0  0
  1  2  2  0  0  0  0 
  2  3  1  0  0  0  0 
  2  4  1  0  0  0  0 
  3  5  1  0  0  0  0 
  6  4  1  0  0  0  0 
  5  6  1  0  0  0  0 
M  END
> <Name>
1,3-Dithiolane-2-thione

> <Source>
NIH3DMolFile

> <Tox>
307

> <CAS>
822-38-8

$$$$

  CDK

 10 11  0  0  0  0  0  0  0  0999 V2000
   -2.1776   -0.0001    0.2689 C   0  0  0  0  0  0  0  0  0  0  0  0
   -1.2829   -1.2363    0.5149 C   0  0  0  0  0  0  0  0  0  0  0  0
   -1.2831    1.2360    0.5153 C   0  0  0  0  0  0  0  0  0  0  0  0
   -2.7481    0.0002   -1.1542 C   0  0  0  0  0  0  0  0  0  0  0  0
    0.0794   -0.6993    0.2048 C   0  0  0  0  0  0  0  0  0  0  0  0
    0.0793    0.6993    0.2047 C   0  0  0  0  0  0  0  0  0  0  0  0
    1.2445   -1.4136   -0.0192 C   0  0  0  0  0  0  0  0  0  0  0  0
    1.2444    1.4136   -0.0192 C   0  0  0  0  0  0  0  0  0  0  0  0
    2.4221   -0.7018   -0.2579 C   0  0  0  0  0  0  0  0  0  0  0  0
    2.4220    0.7019   -0.2580 C   0  0  0  0  0  0  0  0  0  0  0  0
  1  2  1  0  0  0  0 
  1  3  1  0  0  0  0 
  1  4  1  0  0  0  0 
  2  5  1  0  0  0  0 
  3  6  1  0  0  0  0 
  5  6  1  0  0  0  0 
  5  7  2  0  0  0  0 
  6  8  2  0  0  0  0 
  7  9  1  0  0  0  0 
  8 10  1  0  0  0  0 
  9 10  2  0  0  0  0 
M  END
> <Name>
1H-INDENE, 2,3-DIHYDRO-2-METHYL-

> <Source>
Chemidplus3DMolFile

> <Tox>
195

> <CAS>
824-63-5

$$$$

  CDK

 10 10  0  0  0  0  0  0  0  0999 V2000
    2.7115    0.3738   -2.2501 Cl  0  0  0  0  0  0  0  0  0  0  0  0
    1.9027   -1.0700   -1.5996 C   0  0  0  0  0  0  0  0  0  0  0  0
    1.8846   -1.0376   -0.1090 C   0  0  0  0  0  0  0  0  0  0  0  0
    0.8176   -0.4410    0.5626 C   0  0  0  0  0  0  0  0  0  0  0  0
    2.9348   -1.6038    0.6137 C   0  0  0  0  0  0  0  0  0  0  0  0
    0.8008   -0.4105    1.9570 C   0  0  0  0  0  0  0  0  0  0  0  0
    2.9180   -1.5734    2.0082 C   0  0  0  0  0  0  0  0  0  0  0  0
    1.8509   -0.9767    2.6799 C   0  0  0  0  0  0  0  0  0  0  0  0
    1.8340   -0.9465    4.0405 O   0  0  0  0  0  0  0  0  0  0  0  0
    2.9392   -1.5437    4.7171 C   0  0  0  0  0  0  0  0  0  0  0  0
  1  2  1  0  0  0  0 
  3  2  1  0  0  0  0 
  3  4  2  0  0  0  0 
  3  5  1  0  0  0  0 
  4  6  1  0  0  0  0 
  5  7  2  0  0  0  0 
  8  6  2  0  0  0  0 
  8  7  1  0  0  0  0 
  9  8  1  0  0  0  0 
  9 10  1  0  0  0  0 
M  END
> <Name>
4-Methoxybenzyl chloride

> <Source>
Chemidplus3DMolFile

> <Tox>
262.5

> <CAS>
824-94-2

$$$$

  CDK

 11 11  0  0  0  0  0  0  0  0999 V2000
    5.2086    1.9482    2.6795 C   0  0  0  0  0  0  0  0  0  0  0  0
    4.0319    1.5541    2.1801 C   0  0  0  0  0  0  0  0  0  0  0  0
    6.1992    1.0096    3.2662 C   0  0  0  0  0  0  0  0  0  0  0  0
    3.0755    2.4834    1.5857 C   0  0  0  0  0  0  0  0  0  0  0  0
    6.7296    1.4999    4.6076 C   0  0  0  0  0  0  0  0  0  0  0  0
    1.8648    1.9997    1.0774 C   0  0  0  0  0  0  0  0  0  0  0  0
    3.3462    3.8532    1.5174 C   0  0  0  0  0  0  0  0  0  0  0  0
    7.7320    2.6233    4.4648 C   0  0  0  0  0  0  0  0  0  0  0  0
    0.9463    2.8751    0.5122 C   0  0  0  0  0  0  0  0  0  0  0  0
    2.4255    4.7244    0.9499 C   0  0  0  0  0  0  0  0  0  0  0  0
    1.2240    4.2372    0.4472 C   0  0  0  0  0  0  0  0  0  0  0  0
  1  2  2  0  0  0  0 
  1  3  1  0  0  0  0 
  2  4  1  0  0  0  0 
  3  5  1  0  0  0  0 
  4  6  2  0  0  0  0 
  7  4  1  0  0  0  0 
  5  8  1  0  0  0  0 
  6  9  1  0  0  0  0 
 10  7  2  0  0  0  0 
  9 11  2  0  0  0  0 
 11 10  1  0  0  0  0 
M  END
> <Name>
BENZENE, 1-PENTENYL-

> <Source>
NIST3DMolFile

> <Tox>
217

> <CAS>
826-18-6

$$$$

  CDK

 12 12  0  0  0  0  0  0  0  0999 V2000
    1.0020    1.7034    0.0000 C   0  0  0  0  0  0  0  0  0  0  0  0
    1.5030    0.8517    0.0000 C   0  0  0  0  0  0  0  0  0  0  0  0
    1.5030    2.6052    0.0000 C   0  0  0  0  0  0  0  0  0  0  0  0
    0.0000    1.7034    0.0000 F   0  0  0  0  0  0  0  0  0  0  0  0
    2.5050    0.8517    0.0000 C   0  0  0  0  0  0  0  0  0  0  0  0
    1.0020    0.0000    0.0000 I   0  0  0  0  0  0  0  0  0  0  0  0
    2.5050    2.6052    0.0000 C   0  0  0  0  0  0  0  0  0  0  0  0
    1.0020    3.4569    0.0000 F   0  0  0  0  0  0  0  0  0  0  0  0
    3.0060    0.0000    0.0000 F   0  0  0  0  0  0  0  0  0  0  0  0
    3.0060    1.7034    0.0000 C   0  0  0  0  0  0  0  0  0  0  0  0
    3.0060    3.4569    0.0000 F   0  0  0  0  0  0  0  0  0  0  0  0
    4.0080    1.7034    0.0000 F   0  0  0  0  0  0  0  0  0  0  0  0
  1  2  2  0  0  0  0 
  3  1  1  0  0  0  0 
  1  4  1  0  0  0  0 
  2  5  1  0  0  0  0 
  2  6  1  0  0  0  0 
  7  3  2  0  0  0  0 
  3  8  1  0  0  0  0 
  5  9  1  0  0  0  0 
  5 10  2  0  0  0  0 
 10  7  1  0  0  0  0 
  7 11  1  0  0  0  0 
 10 12  1  0  0  0  0 
M  END
> <Name>
Iodopentafluorobenzene

> <Source>
NIST2DMolFile

> <Tox>
166

> <CAS>
827-15-6

$$$$

  CDK

 12 12  0  0  0  0  0  0  0  0999 V2000
    2.4469    2.5967    0.0000 C   0  0  0  0  0  0  0  0  0  0  0  0
    2.9462    3.4955    0.0000 O   0  0  0  0  0  0  0  0  0  0  0  0
    2.9962    1.7478    0.0000 N   0  0  0  0  0  0  0  0  0  0  0  0
    1.4981    2.5967    0.0000 N   0  0  0  0  0  0  0  0  0  0  0  0
    3.9949    1.7478    0.0000 C   0  0  0  0  0  0  0  0  0  0  0  0
    2.4469    0.8988    0.0000 C   0  0  0  0  0  0  0  0  0  0  0  0
    0.9987    3.4955    0.0000 C   0  0  0  0  0  0  0  0  0  0  0  0
    0.9987    1.7478    0.0000 C   0  0  0  0  0  0  0  0  0  0  0  0
    2.9462    0.0000    0.0000 O   0  0  0  0  0  0  0  0  0  0  0  0
    1.4981    0.8988    0.0000 N   0  0  0  0  0  0  0  0  0  0  0  0
    0.0000    1.7478    0.0000 O   0  0  0  0  0  0  0  0  0  0  0  0
    0.9987    0.0000    0.0000 C   0  0  0  0  0  0  0  0  0  0  0  0
  1  2  2  0  0  0  0 
  3  1  1  0  0  0  0 
  1  4  1  0  0  0  0 
  3  5  1  0  0  0  0 
  6  3  1  0  0  0  0 
  4  7  1  0  0  0  0 
  4  8  1  0  0  0  0 
  6  9  2  0  0  0  0 
 10  6  1  0  0  0  0 
  8 10  1  0  0  0  0 
  8 11  2  0  0  0  0 
 10 12  1  0  0  0  0 
M  END
> <Name>
1,3,5-TRIAZINE-2,4,6(1H,3H,5H)-TRIONE, 1,3,5-TRI

> <Source>
NIST2DMolFile

> <Tox>
274

> <CAS>
827-16-7

$$$$

  CDK

 14 15  0  0  0  0  0  0  0  0999 V2000
    4.8022    0.0015    1.2636 Cl  0  0  0  0  0  0  0  0  0  0  0  0
    3.2820    0.0006    0.4569 C   0  0  0  0  0  0  0  0  0  0  0  0
    2.6661   -1.2078    0.1311 C   0  0  0  0  0  0  0  0  0  0  0  0
    2.6652    1.2082    0.1299 C   0  0  0  0  0  0  0  0  0  0  0  0
    1.4333   -1.2086   -0.5217 C   0  0  0  0  0  0  0  0  0  0  0  0
    1.4325    1.2074   -0.5227 C   0  0  0  0  0  0  0  0  0  0  0  0
    0.8378   -0.0010   -0.8375 C   0  0  0  0  0  0  0  0  0  0  0  0
   -0.5021   -0.0016   -1.5454 C   0  0  0  0  0  0  0  0  0  0  0  0
   -1.6740   -0.0007   -0.6224 C   0  0  0  0  0  0  0  0  0  0  0  0
   -2.2218    1.2077   -0.1920 C   0  0  0  0  0  0  0  0  0  0  0  0
   -2.2216   -1.2082   -0.1895 C   0  0  0  0  0  0  0  0  0  0  0  0
   -3.3174    1.2086    0.6714 C   0  0  0  0  0  0  0  0  0  0  0  0
   -3.3172   -1.2074    0.6738 C   0  0  0  0  0  0  0  0  0  0  0  0
   -3.8650    0.0010    1.1043 C   0  0  0  0  0  0  0  0  0  0  0  0
  1  2  1  0  0  0  0 
  3  2  2  0  0  0  0 
  4  2  1  0  0  0  0 
  5  3  1  0  0  0  0 
  6  4  2  0  0  0  0 
  7  5  2  0  0  0  0 
  7  6  1  0  0  0  0 
  8  7  1  0  0  0  0 
  8  9  1  0  0  0  0 
  9 10  2  0  0  0  0 
  9 11  1  0  0  0  0 
 10 12  1  0  0  0  0 
 11 13  2  0  0  0  0 
 12 14  2  0  0  0  0 
 13 14  1  0  0  0  0 
M  END
> <Name>
(4-Benzyl)chlorobenzene

> <Source>
Chemidplus3DMolFile

> <Tox>
299

> <CAS>
831-81-2

$$$$

  CDK

 11 10  0  0  0  0  0  0  0  0999 V2000
    0.0024   -0.4202    0.0367 C   0  0  0  0  0  0  0  0  0  0  0  0
    0.0068   -1.6877    0.8548 C   0  0  0  0  0  0  0  0  0  0  0  0
    1.0305    0.4636    0.4647 O   0  0  0  0  0  0  0  0  0  0  0  0
   -1.0271    0.4560    0.4768 O   0  0  0  0  0  0  0  0  0  0  0  0
   -0.0626   -2.8820    0.2807 C   0  0  0  0  0  0  0  0  0  0  0  0
    2.2196    0.5153   -0.2064 C   0  0  0  0  0  0  0  0  0  0  0  0
   -2.2060    0.5363   -0.2093 C   0  0  0  0  0  0  0  0  0  0  0  0
    3.1567    1.5417    0.3635 C   0  0  0  0  0  0  0  0  0  0  0  0
    2.4127   -0.2277   -1.1475 O   0  0  0  0  0  0  0  0  0  0  0  0
   -3.1421    1.5555    0.3750 C   0  0  0  0  0  0  0  0  0  0  0  0
   -2.3927   -0.1798   -1.1723 O   0  0  0  0  0  0  0  0  0  0  0  0
  1  2  1  0  0  0  0 
  1  3  1  0  0  0  0 
  1  4  1  0  0  0  0 
  2  5  2  0  0  0  0 
  6  3  1  0  0  0  0 
  7  4  1  0  0  0  0 
  6  8  1  0  0  0  0 
  6  9  2  0  0  0  0 
  7 10  1  0  0  0  0 
  7 11  2  0  0  0  0 
M  END
> <Name>
ALLYLIDENEDIACETATE

> <Source>
DougDB3DMolFile

> <Tox>
180

> <CAS>
869-29-4

$$$$

  CDK

  8  8  0  0  0  0  0  0  0  0999 V2000
    0.0000    1.3992    0.0000 O   0  0  0  0  0  0  0  0  0  0  0  0
    0.7995    0.8495    0.0000 S   0  0  0  0  0  0  0  0  0  0  0  0
    0.0000    0.2499    0.0000 O   0  0  0  0  0  0  0  0  0  0  0  0
    1.3992    1.5991    0.0000 C   0  0  0  0  0  0  0  0  0  0  0  0
    1.3992    0.0000    0.0000 C   0  0  0  0  0  0  0  0  0  0  0  0
    2.3486    1.2992    0.0000 C   0  0  0  0  0  0  0  0  0  0  0  0
    2.3486    0.2998    0.0000 C   0  0  0  0  0  0  0  0  0  0  0  0
    3.1981    1.8989    0.0000 C   0  0  0  0  0  0  0  0  0  0  0  0
  1  2  2  0  0  0  0 
  2  3  2  0  0  0  0 
  4  2  1  0  0  0  0 
  2  5  1  0  0  0  0 
  6  4  1  0  0  0  0 
  5  7  1  0  0  0  0 
  7  6  1  0  0  0  0 
  6  8  1  0  0  0  0 
M  END
> <Name>
3-METHYL SULFOLANE

> <Source>
NIST2DMolFile

> <Tox>
276

> <CAS>
872-93-5

$$$$

  CDK

  9  9  0  0  0  0  0  0  0  0999 V2000
    3.4625    2.6094    0.0000 C   0  0  0  0  0  0  0  0  0  0  0  0
    2.4589    2.6094    0.0000 C   0  0  0  0  0  0  0  0  0  0  0  0
    3.9643    1.7061    0.0000 C   0  0  0  0  0  0  0  0  0  0  0  0
    1.9570    1.7563    0.0000 C   0  0  0  0  0  0  0  0  0  0  0  0
    3.4625    0.8531    0.0000 C   0  0  0  0  0  0  0  0  0  0  0  0
    2.4589    0.8531    0.0000 C   0  0  0  0  0  0  0  0  0  0  0  0
    1.0036    1.7563    0.0000 C   0  0  0  0  0  0  0  0  0  0  0  0
    1.9570    0.0000    0.0000 Cl  0  0  0  0  0  0  0  0  0  0  0  0
    0.0000    1.7563    0.0000 N   0  0  0  0  0  0  0  0  0  0  0  0
  1  2  2  0  0  0  0 
  3  1  1  0  0  0  0 
  2  4  1  0  0  0  0 
  5  3  2  0  0  0  0 
  4  6  2  0  0  0  0 
  4  7  1  0  0  0  0 
  6  5  1  0  0  0  0 
  6  8  1  0  0  0  0 
  7  9  3  0  0  0  0 
M  END
> <Name>
Benzonitrile, 2-chloro-

> <Source>
NIST2DMolFile

> <Tox>
232

> <CAS>
873-32-5

$$$$

  CDK

  9  9  0  0  0  0  0  0  0  0999 V2000
    2.9262    1.4663    3.7672 C   0  0  0  0  0  0  0  0  0  0  0  0
    3.7551    1.2801    4.8781 C   0  0  0  0  0  0  0  0  0  0  0  0
    1.5715    1.7539    3.9657 C   0  0  0  0  0  0  0  0  0  0  0  0
    3.4513    1.3654    2.4088 C   0  0  0  0  0  0  0  0  0  0  0  0
    3.2403    1.3794    6.1641 C   0  0  0  0  0  0  0  0  0  0  0  0
    1.0609    1.8523    5.2540 C   0  0  0  0  0  0  0  0  0  0  0  0
    4.7355    1.0970    2.1463 C   0  0  0  0  0  0  0  0  0  0  0  0
    1.8923    1.6657    6.3541 C   0  0  0  0  0  0  0  0  0  0  0  0
    5.2823    0.9928    0.7783 C   0  0  0  0  0  0  0  0  0  0  0  0
  1  2  2  0  0  0  0 
  3  1  1  0  0  0  0 
  1  4  1  0  0  0  0 
  2  5  1  0  0  0  0 
  6  3  2  0  0  0  0 
  4  7  2  0  0  0  0 
  5  8  2  0  0  0  0 
  8  6  1  0  0  0  0 
  7  9  1  0  0  0  0 
M  END
> <Name>
TRANS-1-PHENYL-1-PROPENE

> <Source>
NIST3DMolFile

> <Tox>
178.3

> <CAS>
873-66-5

$$$$

  CDK

 10 10  0  0  0  0  0  0  0  0999 V2000
    0.0000   -3.4531    0.0000 O   0  0  0  0  0  0  0  0  0  0  0  0
    0.6643   -2.3040    0.0000 C   0  0  0  0  0  0  0  0  0  0  0  0
    1.9929   -2.3040    0.0000 C   0  0  0  0  0  0  0  0  0  0  0  0
    2.6571   -1.1490    0.0000 C   0  0  0  0  0  0  0  0  0  0  0  0
    2.6571   -3.4531    0.0000 C   0  0  0  0  0  0  0  0  0  0  0  0
    1.9929   -0.0000    0.0000 Cl  0  0  0  0  0  0  0  0  0  0  0  0
    3.9917   -1.1490    0.0000 C   0  0  0  0  0  0  0  0  0  0  0  0
    3.9917   -3.4531    0.0000 C   0  0  0  0  0  0  0  0  0  0  0  0
    4.6560   -2.3040    0.0000 C   0  0  0  0  0  0  0  0  0  0  0  0
    5.9845   -2.3040    0.0000 Cl  0  0  0  0  0  0  0  0  0  0  0  0
  1  2  2  0  0  0  0 
  2  3  1  0  0  0  0 
  3  4  2  0  0  0  0 
  3  5  1  0  0  0  0 
  4  6  1  0  0  0  0 
  4  7  1  0  0  0  0 
  8  5  2  0  0  0  0 
  7  9  2  0  0  0  0 
  9  8  1  0  0  0  0 
  9 10  1  0  0  0  0 
M  END
> <Name>
2,4-Dichlorobenzaldehyde

> <Source>
DSSTox2DMolFile

> <Tox>
233

> <CAS>
874-42-0

$$$$

  CDK

 10 10  0  0  0  0  0  0  0  0999 V2000
    2.6289    0.5056    0.0000 C   0  0  0  0  0  0  0  0  0  0  0  0
    2.6289    1.4661    0.0000 C   0  0  0  0  0  0  0  0  0  0  0  0
    1.7695    0.0000    0.0000 C   0  0  0  0  0  0  0  0  0  0  0  0
    3.5390    0.0000    0.0000 C   0  0  0  0  0  0  0  0  0  0  0  0
    1.7695    1.9717    0.0000 C   0  0  0  0  0  0  0  0  0  0  0  0
    0.9100    0.5056    0.0000 C   0  0  0  0  0  0  0  0  0  0  0  0
    0.9100    1.4661    0.0000 C   0  0  0  0  0  0  0  0  0  0  0  0
    1.7695    2.9828    0.0000 O   0  0  0  0  0  0  0  0  0  0  0  0
    0.0000    0.0000    0.0000 C   0  0  0  0  0  0  0  0  0  0  0  0
    2.6289    3.4884    0.0000 C   0  0  0  0  0  0  0  0  0  0  0  0
  2  1  2  0  0  0  0 
  1  3  1  0  0  0  0 
  1  4  1  0  0  0  0 
  5  2  1  0  0  0  0 
  3  6  2  0  0  0  0 
  7  5  2  0  0  0  0 
  5  8  1  0  0  0  0 
  6  7  1  0  0  0  0 
  6  9  1  0  0  0  0 
  8 10  1  0  0  0  0 
M  END
> <Name>
3,5-Dimethylanisole

> <Source>
NIST2DMolFile

> <Tox>
194

> <CAS>
874-63-5

$$$$

  CDK

 12 12  0  0  0  0  0  0  0  0999 V2000
    0.0000    0.0000    0.0000 C   0  0  0  0  0  0  0  0  0  0  0  0
   -0.7600   -1.1400    0.6000 C   0  0  0  0  0  0  0  0  0  0  0  0
   -1.2800   -2.0200   -0.2600 O   0  0  0  0  0  0  0  0  0  0  0  0
   -0.8800   -1.2400    1.8000 O   0  0  0  0  0  0  0  0  0  0  0  0
   -2.0200   -3.0000    0.2000 C   0  0  0  0  0  0  0  0  0  0  0  0
   -3.2200   -2.7600    0.8600 C   0  0  0  0  0  0  0  0  0  0  0  0
   -1.5800   -4.3400    0.0000 C   0  0  0  0  0  0  0  0  0  0  0  0
   -3.7000   -1.3600    1.0800 C   0  0  0  0  0  0  0  0  0  0  0  0
   -4.0000   -3.8200    1.3400 C   0  0  0  0  0  0  0  0  0  0  0  0
   -2.3600   -5.4000    0.4800 C   0  0  0  0  0  0  0  0  0  0  0  0
   -3.5600   -5.1400    1.1600 C   0  0  0  0  0  0  0  0  0  0  0  0
   -4.3800   -6.2800    1.6600 C   0  0  0  0  0  0  0  0  0  0  0  0
  1  2  1  0  0  0  0 
  2  3  1  0  0  0  0 
  2  4  2  0  0  0  0 
  3  5  1  0  0  0  0 
  5  6  2  0  0  0  0 
  5  7  1  0  0  0  0 
  6  8  1  0  0  0  0 
  6  9  1  0  0  0  0 
 10  7  2  0  0  0  0 
 11  9  2  0  0  0  0 
 11 10  1  0  0  0  0 
 12 11  1  0  0  0  0 
M  END
> <Name>
2,4-DIMETHYLPHENYL ACETATE

> <Source>
NIH3DMolFile

> <Tox>
226

> <CAS>
877-53-2

$$$$

  CDK

  7  6  0  0  0  0  0  0  0  0999 V2000
    1.5215   -1.6272   -0.0329 C   0  0  0  0  0  0  0  0  0  0  0  0
    0.9537   -0.6065   -0.6622 C   0  0  0  0  0  0  0  0  0  0  0  0
    0.1273    0.4779   -0.0070 C   0  0  0  0  0  0  0  0  0  0  0  0
   -1.3516    0.3337   -0.4308 C   0  0  0  0  0  0  0  0  0  0  0  0
    0.1487    0.4259    1.4129 O   0  0  0  0  0  0  0  0  0  0  0  0
    0.6644    1.8409   -0.4829 C   0  0  0  0  0  0  0  0  0  0  0  0
   -1.9713   -0.9869   -0.0358 C   0  0  0  0  0  0  0  0  0  0  0  0
  1  2  2  0  0  0  0 
  2  3  1  0  0  0  0 
  3  4  1  0  0  0  0 
  3  5  1  0  0  0  0 
  3  6  1  0  0  0  0 
  4  7  1  0  0  0  0 
M  END
> <Name>
1-Penten-3-ol, 3-methyl-

> <Source>
DougDB3DMolFile

> <Tox>
117.5

> <CAS>
918-85-4

$$$$

  CDK

 14 13  0  0  0  0  0  0  0  0999 V2000
    1.1533   -2.7832    0.0000 C   0  0  0  0  0  0  0  0  0  0  0  0
    2.2997   -3.4530    0.0000 C   0  0  0  0  0  0  0  0  0  0  0  0
    0.0000   -3.4530    0.0000 N   0  0  0  0  0  0  0  0  0  0  0  0
    3.4530   -2.7832    0.0000 C   0  0  0  0  0  0  0  0  0  0  0  0
    4.6064   -3.4530    0.0000 Si  0  0  0  0  0  0  0  0  0  0  0  0
    3.9296   -4.6064    0.0000 O   0  0  0  0  0  0  0  0  0  0  0  0
    5.2624   -2.2997    0.0000 O   0  0  0  0  0  0  0  0  0  0  0  0
    5.7528   -4.1229    0.0000 O   0  0  0  0  0  0  0  0  0  0  0  0
    4.6064   -5.7528    0.0000 C   0  0  0  0  0  0  0  0  0  0  0  0
    4.6064   -1.1533    0.0000 C   0  0  0  0  0  0  0  0  0  0  0  0
    5.7528   -5.4489    0.0000 C   0  0  0  0  0  0  0  0  0  0  0  0
    3.9296   -6.9061    0.0000 C   0  0  0  0  0  0  0  0  0  0  0  0
    5.2624   -0.0000    0.0000 C   0  0  0  0  0  0  0  0  0  0  0  0
    6.9061   -6.1050    0.0000 C   0  0  0  0  0  0  0  0  0  0  0  0
  1  2  1  0  0  0  0 
  1  3  1  0  0  0  0 
  2  4  1  0  0  0  0 
  4  5  1  0  0  0  0 
  5  6  1  0  0  0  0 
  5  7  1  0  0  0  0 
  5  8  1  0  0  0  0 
  6  9  1  0  0  0  0 
  7 10  1  0  0  0  0 
  8 11  1  0  0  0  0 
  9 12  1  0  0  0  0 
 10 13  1  0  0  0  0 
 11 14  1  0  0  0  0 
M  END
> <Name>
gamma-Aminopropyltriethoxysilane

> <Source>
DSSTox2DMolFile

> <Tox>
217

> <CAS>
919-30-2

$$$$

  CDK

  5  4  0  0  0  0  0  0  0  0999 V2000
    1.2945    0.1407    0.0000 C   0  0  0  0  0  0  0  0  0  0  0  0
    0.0120   -0.4727    0.0000 C   0  0  0  0  0  0  0  0  0  0  0  0
    2.3394    0.6431    0.0000 N   0  0  0  0  0  0  0  0  0  0  0  0
   -0.1635   -1.7946    0.0000 C   0  0  0  0  0  0  0  0  0  0  0  0
   -1.2975    0.6013    0.0000 Cl  0  0  0  0  0  0  0  0  0  0  0  0
  1  2  1  0  0  0  0 
  1  3  3  0  0  0  0 
  2  4  2  0  0  0  0 
  2  5  1  0  0  0  0 
M  END
> <Name>
2-Propenenitrile, 2-chloro-

> <Source>
DougDB3DMolFile

> <Tox>
88.5

> <CAS>
920-37-6

$$$$

  CDK

  6  5  0  0  0  0  0  0  0  0999 V2000
    0.0000    0.0000    0.0000 C   0  0  0  0  0  0  0  0  0  0  0  0
   -1.1800    0.0000    0.0000 C   0  0  0  0  0  0  0  0  0  0  0  0
   -2.6200    0.0000    0.0000 C   0  0  0  0  0  0  0  0  0  0  0  0
   -3.2400   -1.0400    0.0000 O   0  0  0  0  0  0  0  0  0  0  0  0
   -3.1800    1.2000    0.0000 O   0  0  0  0  0  0  0  0  0  0  0  0
   -4.6000    1.1400   -0.0200 C   0  0  0  0  0  0  0  0  0  0  0  0
  1  2  3  0  0  0  0 
  2  3  1  0  0  0  0 
  3  4  2  0  0  0  0 
  3  5  1  0  0  0  0 
  5  6  1  0  0  0  0 
M  END
> <Name>
Propiolic acid, methyl ester

> <Source>
NIH3DMolFile

> <Tox>
104

> <CAS>
922-67-8

$$$$

  CDK

  8  7  0  0  0  0  0  0  0  0999 V2000
    2.6001    1.5000    0.0000 O   0  0  0  0  0  0  0  0  0  0  0  0
    1.7000    1.0000    0.0000 C   0  0  0  0  0  0  0  0  0  0  0  0
    3.4501    1.0500    0.0000 N   0  0  0  0  0  0  0  0  0  0  0  0
    0.8500    1.5000    0.0000 C   0  0  0  0  0  0  0  0  0  0  0  0
    1.7000    0.0000    0.0000 C   0  0  0  0  0  0  0  0  0  0  0  0
    3.4501    0.0000    0.0000 O   0  0  0  0  0  0  0  0  0  0  0  0
    4.3001    1.5500    0.0000 O   0  0  0  0  0  0  0  0  0  0  0  0
    0.0000    1.0000    0.0000 C   0  0  0  0  0  0  0  0  0  0  0  0
  1  2  1  0  0  0  0 
  1  3  1  0  0  0  0 
  2  4  1  0  0  0  0 
  2  5  1  0  0  0  0 
  3  6  2  0  0  0  0 
  3  7  2  0  0  0  0 
  4  8  1  0  0  0  0 
M  END
> <Name>
NITRIC ACID, 1-METHYLPROPYL ESTER

> <Source>
NIST2DMolFile

> <Tox>
124

> <CAS>
924-52-7

$$$$

  CDK

  6  5  0  0  0  0  0  0  0  0999 V2000
    0.2219   -0.6525    0.1044 O   0  0  0  0  0  0  0  0  0  0  0  0
   -0.9613    0.0061   -0.3371 C   0  0  0  0  0  0  0  0  0  0  0  0
    1.3378   -0.0418   -0.3602 C   0  0  0  0  0  0  0  0  0  0  0  0
   -2.1768   -0.7427    0.1878 C   0  0  0  0  0  0  0  0  0  0  0  0
   -0.9371    1.4510    0.1378 C   0  0  0  0  0  0  0  0  0  0  0  0
    2.5156   -0.0201    0.2674 C   0  0  0  0  0  0  0  0  0  0  0  0
  1  2  1  0  0  0  0 
  1  3  1  0  0  0  0 
  2  4  1  0  0  0  0 
  2  5  1  0  0  0  0 
  3  6  2  0  0  0  0 
M  END
> <Name>
Propane, 2-(ethenyloxy)-

> <Source>
Chemidplus3DMolFile

> <Tox>
55.5

> <CAS>
926-65-8

$$$$

  CDK

  9  8  0  0  0  0  0  0  0  0999 V2000
    2.8056    4.0087    4.5668 C   0  0  0  0  0  0  0  0  0  0  0  0
    3.7023    4.0169    3.3250 C   0  0  0  0  0  0  0  0  0  0  0  0
    2.3381    2.7050    5.2209 C   0  0  0  0  0  0  0  0  0  0  0  0
    3.0707    3.3415    2.1077 C   0  0  0  0  0  0  0  0  0  0  0  0
    5.0941    3.4620    3.5749 C   0  0  0  0  0  0  0  0  0  0  0  0
    1.4912    1.8261    4.3002 C   0  0  0  0  0  0  0  0  0  0  0  0
    3.4653    1.8938    5.8367 C   0  0  0  0  0  0  0  0  0  0  0  0
    3.8352    3.6554    0.8400 C   0  0  0  0  0  0  0  0  0  0  0  0
    0.7881    0.7305    5.0717 C   0  0  0  0  0  0  0  0  0  0  0  0
  1  2  1  0  0  0  0 
  1  3  1  0  0  0  0 
  2  4  1  0  0  0  0 
  2  5  1  0  0  0  0 
  3  6  1  0  0  0  0 
  3  7  1  0  0  0  0 
  4  8  1  0  0  0  0 
  6  9  1  0  0  0  0 
M  END
> <Name>
Heptane, 3,5-dimethyl-

> <Source>
NIST3DMolFile

> <Tox>
136

> <CAS>
926-82-9

$$$$

  CDK

 12 11  0  0  0  0  0  0  0  0999 V2000
    5.1834    1.4952    0.0000 C   0  0  0  0  0  0  0  0  0  0  0  0
    4.3361    0.9968    0.0000 C   0  0  0  0  0  0  0  0  0  0  0  0
    6.0806    0.9968    0.0000 C   0  0  0  0  0  0  0  0  0  0  0  0
    3.4888    1.4952    0.0000 C   0  0  0  0  0  0  0  0  0  0  0  0
    4.3361    0.0000    0.0000 O   0  0  0  0  0  0  0  0  0  0  0  0
    6.9278    1.4952    0.0000 C   0  0  0  0  0  0  0  0  0  0  0  0
    2.5917    0.9968    0.0000 C   0  0  0  0  0  0  0  0  0  0  0  0
    7.7751    0.9968    0.0000 C   0  0  0  0  0  0  0  0  0  0  0  0
    1.7444    1.4952    0.0000 C   0  0  0  0  0  0  0  0  0  0  0  0
    8.6723    1.4952    0.0000 C   0  0  0  0  0  0  0  0  0  0  0  0
    0.8971    0.9968    0.0000 C   0  0  0  0  0  0  0  0  0  0  0  0
    0.0000    1.4952    0.0000 C   0  0  0  0  0  0  0  0  0  0  0  0
  1  2  1  0  0  0  0 
  1  3  1  0  0  0  0 
  2  4  1  0  0  0  0 
  2  5  2  0  0  0  0 
  3  6  1  0  0  0  0 
  4  7  1  0  0  0  0 
  6  8  1  0  0  0  0 
  7  9  1  0  0  0  0 
  8 10  1  0  0  0  0 
  9 11  1  0  0  0  0 
 11 12  1  0  0  0  0 
M  END
> <Name>
6-UNDECANONE

> <Source>
NIST2DMolFile

> <Tox>
228

> <CAS>
927-49-1

$$$$

  CDK

  5  4  0  0  0  0  0  0  0  0999 V2000
    0.0000    1.2258    0.0000 C   0  0  0  0  0  0  0  0  0  0  0  0
    1.3949    1.2258    0.0000 C   0  0  0  0  0  0  0  0  0  0  0  0
    2.8320    1.2258    0.0000 O   0  0  0  0  0  0  0  0  0  0  0  0
    3.5083    0.0000    0.0000 C   0  0  0  0  0  0  0  0  0  0  0  0
    4.7764    0.0000    0.0000 C   0  0  0  0  0  0  0  0  0  0  0  0
  1  2  3  0  0  0  0 
  2  3  1  0  0  0  0 
  3  4  1  0  0  0  0 
  4  5  1  0  0  0  0 
M  END
> <Name>
Ethoxy-ethyne

> <Source>
IndexNet2DMolFile

> <Tox>
50

> <CAS>
927-80-0

$$$$

  CDK

  6  5  0  0  0  0  0  0  0  0999 V2000
    2.6135    0.5026    0.0000 C   0  0  0  0  0  0  0  0  0  0  0  0
    1.7088    0.0000    0.0000 C   0  0  0  0  0  0  0  0  0  0  0  0
    3.4679    0.0000    0.0000 C   0  0  0  0  0  0  0  0  0  0  0  0
    0.8544    0.5026    0.0000 C   0  0  0  0  0  0  0  0  0  0  0  0
    4.3223    0.5026    0.0000 Cl  0  0  0  0  0  0  0  0  0  0  0  0
    0.0000    0.0000    0.0000 C   0  0  0  0  0  0  0  0  0  0  0  0
  1  2  1  0  0  0  0 
  1  3  1  0  0  0  0 
  2  4  1  0  0  0  0 
  3  5  1  0  0  0  0 
  4  6  2  0  0  0  0 
M  END
> <Name>
1-PENTENE, 5-CHLORO-

> <Source>
NIST2DMolFile

> <Tox>
105

> <CAS>
928-50-7

$$$$

  CDK

 11 10  0  0  0  0  0  0  0  0999 V2000
    0.0000    0.9994    0.0000 C   0  0  0  0  0  0  0  0  0  0  0  0
    0.8495    1.4992    0.0000 C   0  0  0  0  0  0  0  0  0  0  0  0
    1.6990    0.9994    0.0000 C   0  0  0  0  0  0  0  0  0  0  0  0
    2.5985    1.4992    0.0000 C   0  0  0  0  0  0  0  0  0  0  0  0
    1.6990    0.0000    0.0000 O   0  0  0  0  0  0  0  0  0  0  0  0
    3.4481    0.9994    0.0000 C   0  0  0  0  0  0  0  0  0  0  0  0
    4.2976    1.4992    0.0000 C   0  0  0  0  0  0  0  0  0  0  0  0
    5.1971    0.9994    0.0000 C   0  0  0  0  0  0  0  0  0  0  0  0
    6.0466    1.4992    0.0000 C   0  0  0  0  0  0  0  0  0  0  0  0
    6.8961    0.9994    0.0000 C   0  0  0  0  0  0  0  0  0  0  0  0
    7.7956    1.4992    0.0000 C   0  0  0  0  0  0  0  0  0  0  0  0
  1  2  1  0  0  0  0 
  2  3  1  0  0  0  0 
  3  4  1  0  0  0  0 
  3  5  2  0  0  0  0 
  4  6  1  0  0  0  0 
  6  7  1  0  0  0  0 
  7  8  1  0  0  0  0 
  8  9  1  0  0  0  0 
  9 10  1  0  0  0  0 
 10 11  1  0  0  0  0 
M  END
> <Name>
3-DECANONE

> <Source>
NIST2DMolFile

> <Tox>
203

> <CAS>
928-80-3

$$$$

  CDK

  7  6  0  0  0  0  0  0  0  0999 V2000
    1.1578   -0.0000    0.0000 C   0  0  0  0  0  0  0  0  0  0  0  0
    2.3086   -0.6586    0.0000 C   0  0  0  0  0  0  0  0  0  0  0  0
    0.0000   -0.6586    0.0000 O   0  0  0  0  0  0  0  0  0  0  0  0
    3.4664   -0.0000    0.0000 O   0  0  0  0  0  0  0  0  0  0  0  0
    4.6242   -0.6586    0.0000 C   0  0  0  0  0  0  0  0  0  0  0  0
    5.7751   -0.0000    0.0000 C   0  0  0  0  0  0  0  0  0  0  0  0
    6.9328   -0.6586    0.0000 N   0  0  0  0  0  0  0  0  0  0  0  0
  1  2  1  0  0  0  0 
  1  3  1  0  0  0  0 
  2  4  1  0  0  0  0 
  4  5  1  0  0  0  0 
  5  6  1  0  0  0  0 
  6  7  1  0  0  0  0 
M  END
> <Name>
2-(2-Aminoethoxy)ethanol

> <Source>
DSSTox2DMolFile

> <Tox>
221

> <CAS>
929-06-6

$$$$

  CDK

  9  8  0  0  0  0  0  0  0  0999 V2000
    3.1882   -0.2366    0.4530 C   0  0  0  0  0  0  0  0  0  0  0  0
    2.2466    0.7873   -0.1983 C   0  0  0  0  0  0  0  0  0  0  0  0
    3.1238   -1.5026   -0.1431 O   0  0  0  0  0  0  0  0  0  0  0  0
    0.9395    0.5076    0.2788 O   0  0  0  0  0  0  0  0  0  0  0  0
   -0.0596    1.3265   -0.3075 C   0  0  0  0  0  0  0  0  0  0  0  0
   -1.4141    0.8412    0.2201 C   0  0  0  0  0  0  0  0  0  0  0  0
   -1.8329   -0.2267   -0.6264 O   0  0  0  0  0  0  0  0  0  0  0  0
   -3.0098   -0.8426   -0.3231 C   0  0  0  0  0  0  0  0  0  0  0  0
   -3.8604   -0.5635    0.6650 C   0  0  0  0  0  0  0  0  0  0  0  0
  1  2  1  0  0  0  0 
  1  3  1  0  0  0  0 
  2  4  1  0  0  0  0 
  4  5  1  0  0  0  0 
  5  6  1  0  0  0  0 
  6  7  1  0  0  0  0 
  7  8  1  0  0  0  0 
  8  9  2  0  0  0  0 
M  END
> <Name>
Ethanol, 2-(2-(ethenyloxy)ethoxy)- (9CI)

> <Source>
DougDB3DMolFile

> <Tox>
196

> <CAS>
929-37-3

$$$$

  CDK

  7  7  0  0  0  0  0  0  0  0999 V2000
    0.0341   -0.9021   -0.0004 N   0  0  0  0  0  0  0  0  0  0  0  0
    1.1264   -0.0810   -0.0001 C   0  0  0  0  0  0  0  0  0  0  0  0
   -1.0772   -0.1057   -0.0004 C   0  0  0  0  0  0  0  0  0  0  0  0
    0.6091    1.1930   -0.0002 C   0  0  0  0  0  0  0  0  0  0  0  0
    2.5052   -0.5930    0.0004 C   0  0  0  0  0  0  0  0  0  0  0  0
   -0.7631    1.1707    0.0002 N   0  0  0  0  0  0  0  0  0  0  0  0
   -2.4347   -0.6819    0.0004 C   0  0  0  0  0  0  0  0  0  0  0  0
  1  2  1  0  0  0  0 
  1  3  1  0  0  0  0 
  2  4  2  0  0  0  0 
  2  5  1  0  0  0  0 
  6  3  2  0  0  0  0 
  3  7  1  0  0  0  0 
  6  4  1  0  0  0  0 
M  END
> <Name>
2,4-Dimethyl-1H-imidazole

> <Source>
Chemidplus3DMolFile

> <Tox>
267

> <CAS>
930-62-1

$$$$

  CDK

  8  8  0  0  0  0  0  0  0  0999 V2000
    5.5061    2.9540    1.5968 C   0  0  0  0  0  0  0  0  0  0  0  0
    4.3727    2.2250    0.9098 C   0  0  0  0  0  0  0  0  0  0  0  0
    3.1845    2.0016    1.8344 C   0  0  0  0  0  0  0  0  0  0  0  0
    2.3840    3.2562    2.2391 C   0  0  0  0  0  0  0  0  0  0  0  0
    2.1455    1.0591    1.2184 C   0  0  0  0  0  0  0  0  0  0  0  0
    2.2315    4.2862    1.1345 C   0  0  0  0  0  0  0  0  0  0  0  0
    1.0152    2.6976    2.6565 C   0  0  0  0  0  0  0  0  0  0  0  0
    0.8216    1.3793    1.9075 C   0  0  0  0  0  0  0  0  0  0  0  0
  1  2  1  0  0  0  0 
  2  3  1  0  0  0  0 
  4  3  1  0  0  0  0 
  3  5  1  0  0  0  0 
  4  6  1  0  0  0  0 
  7  4  1  0  0  0  0 
  5  8  1  0  0  0  0 
  8  7  1  0  0  0  0 
M  END
> <Name>
CYCLOPENTANE, 1-ETHYL-2-METHYL-, CIS-

> <Source>
NIST3DMolFile

> <Tox>
128

> <CAS>
930-89-2

$$$$

  CDK

 10 10  0  0  0  0  0  0  0  0999 V2000
    5.6625   -2.2007    2.0617 Cl  0  0  0  0  0  0  0  0  0  0  0  0
    4.0289   -2.1590    2.7459 C   0  0  0  0  0  0  0  0  0  0  0  0
    3.8156   -2.6466    3.8745 O   0  0  0  0  0  0  0  0  0  0  0  0
    2.9185   -1.5646    2.0141 C   0  0  0  0  0  0  0  0  0  0  0  0
    1.8497   -0.9689    2.6836 C   0  0  0  0  0  0  0  0  0  0  0  0
    2.9371   -1.5972    0.6197 C   0  0  0  0  0  0  0  0  0  0  0  0
    0.7994   -0.4058    1.9588 C   0  0  0  0  0  0  0  0  0  0  0  0
    1.8046   -0.9202    4.1764 C   0  0  0  0  0  0  0  0  0  0  0  0
    1.8867   -1.0341   -0.1051 C   0  0  0  0  0  0  0  0  0  0  0  0
    0.8178   -0.4385    0.5644 C   0  0  0  0  0  0  0  0  0  0  0  0
  1  2  1  0  0  0  0 
  3  2  2  0  0  0  0 
  4  2  1  0  0  0  0 
  5  4  1  0  0  0  0 
  4  6  2  0  0  0  0 
  5  7  2  0  0  0  0 
  5  8  1  0  0  0  0 
  6  9  1  0  0  0  0 
  7 10  1  0  0  0  0 
 10  9  2  0  0  0  0 
M  END
> <Name>
Benzoyl chloride, 2-methyl-

> <Source>
Chemidplus3DMolFile

> <Tox>
213.5

> <CAS>
933-88-0

$$$$

  CDK

 11 11  0  0  0  0  0  0  0  0999 V2000
    1.6785    0.4311   -0.0016 C   0  0  0  0  0  0  0  0  0  0  0  0
    2.5447   -0.8076   -0.0046 C   0  0  0  0  0  0  0  0  0  0  0  0
    2.1715    1.5427   -0.0004 O   0  0  0  0  0  0  0  0  0  0  0  0
    0.1976    0.2327   -0.0009 C   0  0  0  0  0  0  0  0  0  0  0  0
    4.2659   -0.4027    0.0025 Cl  0  0  0  0  0  0  0  0  0  0  0  0
   -0.3751   -1.0430   -0.0007 C   0  0  0  0  0  0  0  0  0  0  0  0
   -0.6386    1.3546   -0.0005 C   0  0  0  0  0  0  0  0  0  0  0  0
   -1.7547   -1.1983   -0.0001 C   0  0  0  0  0  0  0  0  0  0  0  0
   -2.0205    1.2067    0.0000 C   0  0  0  0  0  0  0  0  0  0  0  0
   -2.5732   -0.0708    0.0002 C   0  0  0  0  0  0  0  0  0  0  0  0
   -4.2446   -0.2571    0.0009 Cl  0  0  0  0  0  0  0  0  0  0  0  0
  1  2  1  0  0  0  0 
  1  3  2  0  0  0  0 
  1  4  1  0  0  0  0 
  2  5  1  0  0  0  0 
  4  6  1  0  0  0  0 
  4  7  2  0  0  0  0 
  6  8  2  0  0  0  0 
  9  7  1  0  0  0  0 
  8 10  1  0  0  0  0 
 10  9  2  0  0  0  0 
 10 11  1  0  0  0  0 
M  END
> <Name>
2,4'-Dichloroacetophenone

> <Source>
DougDB3DMolFile

> <Tox>
270

> <CAS>
937-20-2

$$$$

  CDK

 12 12  0  0  0  0  0  0  0  0999 V2000
    0.8944    0.8447    0.0000 C   0  0  0  0  0  0  0  0  0  0  0  0
    1.3415    1.7390    0.0000 C   0  0  0  0  0  0  0  0  0  0  0  0
    1.7390    0.3478    0.0000 C   0  0  0  0  0  0  0  0  0  0  0  0
    0.0000    1.3415    0.0000 C   0  0  0  0  0  0  0  0  0  0  0  0
    0.3975    0.0000    0.0000 C   0  0  0  0  0  0  0  0  0  0  0  0
    0.8447    2.5837    0.0000 O   0  0  0  0  0  0  0  0  0  0  0  0
    2.3850    1.7390    0.0000 C   0  0  0  0  0  0  0  0  0  0  0  0
    2.8818    2.5837    0.0000 C   0  0  0  0  0  0  0  0  0  0  0  0
    2.8818    0.8447    0.0000 C   0  0  0  0  0  0  0  0  0  0  0  0
    3.8756    2.5837    0.0000 C   0  0  0  0  0  0  0  0  0  0  0  0
    3.8756    0.8447    0.0000 C   0  0  0  0  0  0  0  0  0  0  0  0
    4.3724    1.7390    0.0000 C   0  0  0  0  0  0  0  0  0  0  0  0
  1  2  1  0  0  0  0 
  1  3  1  0  0  0  0 
  1  4  1  0  0  0  0 
  1  5  1  0  0  0  0 
  2  6  2  0  0  0  0 
  2  7  1  0  0  0  0 
  8  7  2  0  0  0  0 
  7  9  1  0  0  0  0 
 10  8  1  0  0  0  0 
  9 11  2  0  0  0  0 
 12 10  2  0  0  0  0 
 11 12  1  0  0  0  0 
M  END
> <Name>
2,2-DIMETHYLPROPIOPHENONE

> <Source>
NIST2DMolFile

> <Tox>
220

> <CAS>
938-16-9

$$$$

  CDK

 12 13  0  0  0  0  0  0  0  0999 V2000
    3.6233    0.0000    0.0000 C   0  0  0  0  0  0  0  0  0  0  0  0
    3.6233    1.4160    0.0000 O   0  0  0  0  0  0  0  0  0  0  0  0
    2.4156    2.1240    0.0000 C   0  0  0  0  0  0  0  0  0  0  0  0
    1.2078    1.4160    0.0000 C   0  0  0  0  0  0  0  0  0  0  0  0
    2.4156    3.4984    0.0000 C   0  0  0  0  0  0  0  0  0  0  0  0
    0.0000    2.1240    0.0000 C   0  0  0  0  0  0  0  0  0  0  0  0
    3.6233    4.2064    0.0000 N   0  0  0  0  0  0  0  0  0  0  0  0
    1.2078    4.2064    0.0000 C   0  0  0  0  0  0  0  0  0  0  0  0
    0.0000    3.4984    0.0000 C   0  0  0  0  0  0  0  0  0  0  0  0
    3.6233    5.6224    0.0000 C   0  0  0  0  0  0  0  0  0  0  0  0
    1.2078    5.6224    0.0000 C   0  0  0  0  0  0  0  0  0  0  0  0
    2.4156    6.2888    0.0000 C   0  0  0  0  0  0  0  0  0  0  0  0
  1  2  1  0  0  0  0 
  2  3  1  0  0  0  0 
  3  4  2  0  0  0  0 
  3  5  1  0  0  0  0 
  4  6  1  0  0  0  0 
  7  5  2  0  0  0  0 
  8  5  1  0  0  0  0 
  6  9  2  0  0  0  0 
 10  7  1  0  0  0  0 
  9  8  1  0  0  0  0 
  8 11  2  0  0  0  0 
 12 10  2  0  0  0  0 
 11 12  1  0  0  0  0 
M  END
> <Name>
8-METHOXYQUINOLINE

> <Source>
IndexNet2DMolFile

> <Tox>
283

> <CAS>
938-33-0

$$$$

  CDK

 17 19  0  0  0  0  0  0  0  0999 V2000
    7.2207   -0.6668    0.0000 C   0  0  0  0  0  0  0  0  0  0  0  0
    8.3733   -0.0000    0.0000 C   0  0  0  0  0  0  0  0  0  0  0  0
    7.2207   -1.9909    0.0000 C   0  0  0  0  0  0  0  0  0  0  0  0
    9.5260   -0.6668    0.0000 C   0  0  0  0  0  0  0  0  0  0  0  0
    8.3733   -2.6577    0.0000 C   0  0  0  0  0  0  0  0  0  0  0  0
    6.0680   -2.6577    0.0000 C   0  0  0  0  0  0  0  0  0  0  0  0
    9.5260   -1.9909    0.0000 C   0  0  0  0  0  0  0  0  0  0  0  0
    5.9347   -3.9819    0.0000 C   0  0  0  0  0  0  0  0  0  0  0  0
    4.8582   -2.1148    0.0000 O   0  0  0  0  0  0  0  0  0  0  0  0
    4.6296   -4.2581    0.0000 C   0  0  0  0  0  0  0  0  0  0  0  0
    3.9628   -3.1055    0.0000 C   0  0  0  0  0  0  0  0  0  0  0  0
    2.6482   -2.9721    0.0000 C   0  0  0  0  0  0  0  0  0  0  0  0
    1.8671   -4.0390    0.0000 C   0  0  0  0  0  0  0  0  0  0  0  0
    2.1052   -1.7528    0.0000 C   0  0  0  0  0  0  0  0  0  0  0  0
    0.5430   -3.9057    0.0000 C   0  0  0  0  0  0  0  0  0  0  0  0
    0.7811   -1.6099    0.0000 C   0  0  0  0  0  0  0  0  0  0  0  0
    0.0000   -2.6863    0.0000 C   0  0  0  0  0  0  0  0  0  0  0  0
  1  2  2  0  0  0  0 
  1  3  1  0  0  0  0 
  2  4  1  0  0  0  0 
  5  3  2  0  0  0  0 
  3  6  1  0  0  0  0 
  4  7  2  0  0  0  0 
  7  5  1  0  0  0  0 
  6  8  2  0  0  0  0 
  6  9  1  0  0  0  0 
  8 10  1  0  0  0  0 
 11  9  1  0  0  0  0 
 10 11  2  0  0  0  0 
 11 12  1  0  0  0  0 
 12 13  2  0  0  0  0 
 12 14  1  0  0  0  0 
 13 15  1  0  0  0  0 
 16 14  2  0  0  0  0 
 15 17  2  0  0  0  0 
 17 16  1  0  0  0  0 
M  END
> <Name>
Furan, 2,5-diphenyl-

> <Source>
DSSTox2DMolFile

> <Tox>
344

> <CAS>
955-83-9

$$$$

  CDK

  2  1  0  0  0  0  0  0  0  0999 V2000
    2.3585    2.5358    1.0419 C   0  0  0  0  0  0  0  0  0  0  0  0
    1.4680    0.8992    1.0821 Si  0  0  0  0  0  0  0  0  0  0  0  0
  1  2  1  0  0  0  0 
M  END
> <Name>
SILANE, METHYL-

> <Source>
NIST3DMolFile

> <Tox>
-57.5

> <CAS>
992-94-9

$$$$

  CDK

  8  7  0  0  0  0  0  0  0  0999 V2000
    1.4784    1.0196    0.0000 Si  0  0  0  0  0  0  0  0  0  0  0  0
    2.4979    1.0196    0.0000 C   0  0  0  0  0  0  0  0  0  0  0  0
    1.4784    0.0000    0.0000 Cl  0  0  0  0  0  0  0  0  0  0  0  0
    1.4784    2.0391    0.0000 C   0  0  0  0  0  0  0  0  0  0  0  0
    0.5098    1.0196    0.0000 C   0  0  0  0  0  0  0  0  0  0  0  0
    3.0077    0.1529    0.0000 C   0  0  0  0  0  0  0  0  0  0  0  0
    0.6627    2.5489    0.0000 C   0  0  0  0  0  0  0  0  0  0  0  0
    0.0000    0.1529    0.0000 C   0  0  0  0  0  0  0  0  0  0  0  0
  1  2  1  0  0  0  0 
  1  3  1  0  0  0  0 
  1  4  1  0  0  0  0 
  1  5  1  0  0  0  0 
  2  6  1  0  0  0  0 
  4  7  1  0  0  0  0 
  5  8  1  0  0  0  0 
M  END
> <Name>
CHLOROTRIETHYLSILANE

> <Source>
NIST2DMolFile

> <Tox>
144.5

> <CAS>
994-30-9

$$$$

  CDK

 11 10  0  0  0  0  0  0  0  0999 V2000
    1.7438    3.0392    0.0000 N   0  0  0  0  0  0  0  0  0  0  0  0
    0.8470    2.4912    0.0000 Si  0  0  0  0  0  0  0  0  0  0  0  0
    2.5908    2.5410    0.0000 C   0  0  0  0  0  0  0  0  0  0  0  0
    0.3488    3.3381    0.0000 C   0  0  0  0  0  0  0  0  0  0  0  0
    1.3452    1.6442    0.0000 C   0  0  0  0  0  0  0  0  0  0  0  0
    0.0000    1.9929    0.0000 C   0  0  0  0  0  0  0  0  0  0  0  0
    3.4378    2.0427    0.0000 N   0  0  0  0  0  0  0  0  0  0  0  0
    3.4378    0.9965    0.0000 Si  0  0  0  0  0  0  0  0  0  0  0  0
    2.4413    0.9965    0.0000 C   0  0  0  0  0  0  0  0  0  0  0  0
    4.4342    0.9965    0.0000 C   0  0  0  0  0  0  0  0  0  0  0  0
    3.4378    0.0000    0.0000 C   0  0  0  0  0  0  0  0  0  0  0  0
  1  2  1  0  0  0  0 
  1  3  2  0  0  0  0 
  2  4  1  0  0  0  0 
  2  5  1  0  0  0  0 
  2  6  1  0  0  0  0 
  3  7  2  0  0  0  0 
  7  8  1  0  0  0  0 
  8  9  1  0  0  0  0 
  8 10  1  0  0  0  0 
  8 11  1  0  0  0  0 
M  END
> <Name>
Silanamine, N,N'-methanetetraylbis(1,1,1-trimeth

> <Source>
NIST2DMolFile

> <Tox>
164

> <CAS>
1000-70-0

$$$$

  CDK

  9  8  0  0  0  0  0  0  0  0999 V2000
    0.2780   -1.3874    0.0000 N   0  0  0  0  0  0  0  0  0  0  0  0
   -0.9345   -2.0874    0.0000 O   0  0  0  0  0  0  0  0  0  0  0  0
    0.2780    0.0126    0.0000 O   0  0  0  0  0  0  0  0  0  0  0  0
    1.4904   -2.0874    0.0000 O   0  0  0  0  0  0  0  0  0  0  0  0
   -2.1469   -1.3874    0.0000 C   0  0  0  0  0  0  0  0  0  0  0  0
   -3.3593   -2.0874    0.0000 C   0  0  0  0  0  0  0  0  0  0  0  0
   -4.5718   -1.3874    0.0000 C   0  0  0  0  0  0  0  0  0  0  0  0
   -5.7842   -2.0874    0.0000 C   0  0  0  0  0  0  0  0  0  0  0  0
   -6.9966   -1.3874    0.0000 C   0  0  0  0  0  0  0  0  0  0  0  0
  2  1  1  0  0  0  0 
  3  1  2  0  0  0  0 
  4  1  1  0  0  0  0 
  2  5  1  0  0  0  0 
  6  5  1  0  0  0  0 
  7  6  1  0  0  0  0 
  8  7  1  0  0  0  0 
  9  8  1  0  0  0  0 
M  CHG  1   1   1
M  CHG  1   4  -1
M  END
> <Name>
1-PENTYL NITRATE

> <Source>
IndexNet2DMolFile

> <Tox>
157

> <CAS>
1002-16-0

$$$$

  CDK

  6  6  0  0  0  0  0  0  0  0999 V2000
    0.6333    2.5818    1.6112 N   0  0  0  0  0  0  0  0  0  0  0  0
    2.0204    2.1653    1.9102 C   0  0  0  0  0  0  0  0  0  0  0  0
    3.0530    3.0470    1.1939 C   0  0  0  0  0  0  0  0  0  0  0  0
    2.3704    0.7241    1.4997 C   0  0  0  0  0  0  0  0  0  0  0  0
    4.2903    2.1762    0.9973 C   0  0  0  0  0  0  0  0  0  0  0  0
    3.8619    0.7218    1.1851 C   0  0  0  0  0  0  0  0  0  0  0  0
  1  2  1  0  0  0  0 
  2  3  1  0  0  0  0 
  4  2  1  0  0  0  0 
  3  5  1  0  0  0  0 
  6  4  1  0  0  0  0 
  5  6  1  0  0  0  0 
M  END
> <Name>
Cyclopentanamine

> <Source>
NIST3DMolFile

> <Tox>
108

> <CAS>
1003-03-8

$$$$

  CDK

  9  9  0  0  0  0  0  0  0  0999 V2000
    3.0305    4.1201    0.8260 C   0  0  0  0  0  0  0  0  0  0  0  0
    3.0223    5.3412    0.8249 O   0  0  0  0  0  0  0  0  0  0  0  0
    1.8024    3.3091    0.8118 C   0  0  0  0  0  0  0  0  0  0  0  0
    4.2697    3.3273    0.8434 C   0  0  0  0  0  0  0  0  0  0  0  0
    1.8703    1.9615    0.8176 C   0  0  0  0  0  0  0  0  0  0  0  0
    4.2224    1.9792    0.8471 C   0  0  0  0  0  0  0  0  0  0  0  0
    0.6857    1.0591    0.8123 C   0  0  0  0  0  0  0  0  0  0  0  0
    3.0511    1.2546    0.8348 O   0  0  0  0  0  0  0  0  0  0  0  0
    5.4130    1.0851    0.8678 C   0  0  0  0  0  0  0  0  0  0  0  0
  1  2  2  0  0  0  0 
  3  1  1  0  0  0  0 
  1  4  1  0  0  0  0 
  5  3  2  0  0  0  0 
  4  6  2  0  0  0  0 
  5  7  1  0  0  0  0 
  8  5  1  0  0  0  0 
  6  8  1  0  0  0  0 
  6  9  1  0  0  0  0 
M  END
> <Name>
GAMMA-2,6-DIMETHYLPYRONE

> <Source>
NIST3DMolFile

> <Tox>
251

> <CAS>
1004-36-0

$$$$

  CDK

 10 10  0  0  0  0  0  0  0  0999 V2000
    1.6586    1.2103    3.3989 C   0  0  0  0  0  0  0  0  0  0  0  0
    1.3244    1.0055    2.0594 C   0  0  0  0  0  0  0  0  0  0  0  0
    2.7931    1.9809    3.7064 C   0  0  0  0  0  0  0  0  0  0  0  0
    0.8029    0.6272    4.4651 C   0  0  0  0  0  0  0  0  0  0  0  0
    2.0999    1.5563    1.0471 C   0  0  0  0  0  0  0  0  0  0  0  0
    3.5759    2.5499    2.6867 C   0  0  0  0  0  0  0  0  0  0  0  0
    3.0744    2.2760    5.0409 O   0  0  0  0  0  0  0  0  0  0  0  0
    3.2146    2.3246    1.3579 C   0  0  0  0  0  0  0  0  0  0  0  0
    4.7675    3.3851    2.9895 C   0  0  0  0  0  0  0  0  0  0  0  0
    3.9892    1.3797    5.6337 C   0  0  0  0  0  0  0  0  0  0  0  0
  1  2  2  0  0  0  0 
  3  1  1  0  0  0  0 
  1  4  1  0  0  0  0 
  2  5  1  0  0  0  0 
  6  3  2  0  0  0  0 
  3  7  1  0  0  0  0 
  5  8  2  0  0  0  0 
  8  6  1  0  0  0  0 
  6  9  1  0  0  0  0 
  7 10  1  0  0  0  0 
M  END
> <Name>
2,6-DIMETHYLANISOLE

> <Source>
NIST3DMolFile

> <Tox>
182.5

> <CAS>
1004-66-6

$$$$

  CDK

 12 12  0  0  0  0  0  0  0  0999 V2000
    3.0607    0.9785    2.3276 C   0  0  0  0  0  0  0  0  0  0  0  0
    3.6446    1.5775    3.5907 C   0  0  0  0  0  0  0  0  0  0  0  0
    3.1965    1.8447    1.0863 C   0  0  0  0  0  0  0  0  0  0  0  0
    4.5779    2.3590    3.5814 O   0  0  0  0  0  0  0  0  0  0  0  0
    3.0296    1.1274    4.8774 C   0  0  0  0  0  0  0  0  0  0  0  0
    2.1576    2.9572    1.0471 C   0  0  0  0  0  0  0  0  0  0  0  0
    1.6703    0.8144    4.9421 C   0  0  0  0  0  0  0  0  0  0  0  0
    3.8122    1.0356    6.0302 C   0  0  0  0  0  0  0  0  0  0  0  0
    0.7489    2.4121    0.9595 C   0  0  0  0  0  0  0  0  0  0  0  0
    1.0991    0.4138    6.1433 C   0  0  0  0  0  0  0  0  0  0  0  0
    3.2375    0.6304    7.2303 C   0  0  0  0  0  0  0  0  0  0  0  0
    1.8834    0.3205    7.2891 C   0  0  0  0  0  0  0  0  0  0  0  0
  1  2  1  0  0  0  0 
  1  3  1  0  0  0  0 
  2  4  2  0  0  0  0 
  2  5  1  0  0  0  0 
  3  6  1  0  0  0  0 
  7  5  2  0  0  0  0 
  5  8  1  0  0  0  0 
  6  9  1  0  0  0  0 
 10  7  1  0  0  0  0 
  8 11  2  0  0  0  0 
 12 10  2  0  0  0  0 
 11 12  1  0  0  0  0 
M  END
> <Name>
1-Pentanone, 1-phenyl-

> <Source>
NIST3DMolFile

> <Tox>
245

> <CAS>
1009-14-9

$$$$

  CDK

 14 14  0  0  0  0  0  0  0  0999 V2000
    7.1711    4.4899    0.8702 C   0  0  0  0  0  0  0  0  0  0  0  0
    7.3057    3.5067    2.0345 C   0  0  0  0  0  0  0  0  0  0  0  0
    8.0878    4.1701    3.1712 C   0  0  0  0  0  0  0  0  0  0  0  0
    8.0743    2.2804    1.5401 C   0  0  0  0  0  0  0  0  0  0  0  0
    5.9439    3.1216    2.5775 C   0  0  0  0  0  0  0  0  0  0  0  0
    5.7257    1.8644    3.1430 C   0  0  0  0  0  0  0  0  0  0  0  0
    4.8936    4.0422    2.5694 C   0  0  0  0  0  0  0  0  0  0  0  0
    4.4863    1.5284    3.6699 C   0  0  0  0  0  0  0  0  0  0  0  0
    3.6553    3.7069    3.0987 C   0  0  0  0  0  0  0  0  0  0  0  0
    3.4314    2.4424    3.6473 C   0  0  0  0  0  0  0  0  0  0  0  0
    2.0894    2.0909    4.2577 C   0  0  0  0  0  0  0  0  0  0  0  0
    0.9529    2.8430    3.5632 C   0  0  0  0  0  0  0  0  0  0  0  0
    2.1326    2.4915    5.7349 C   0  0  0  0  0  0  0  0  0  0  0  0
    1.8097    0.5911    4.1484 C   0  0  0  0  0  0  0  0  0  0  0  0
  1  2  1  0  0  0  0 
  2  3  1  0  0  0  0 
  2  4  1  0  0  0  0 
  2  5  1  0  0  0  0 
  5  6  2  0  0  0  0 
  7  5  1  0  0  0  0 
  6  8  1  0  0  0  0 
  9  7  2  0  0  0  0 
  8 10  2  0  0  0  0 
 10  9  1  0  0  0  0 
 10 11  1  0  0  0  0 
 11 12  1  0  0  0  0 
 11 13  1  0  0  0  0 
 11 14  1  0  0  0  0 
M  END
> <Name>
Benzene, 1,4-bis(1,1-dimethylethyl)-

> <Source>
NIST3DMolFile

> <Tox>
238

> <CAS>
1012-72-2

$$$$

  CDK

 14 14  0  0  0  0  0  0  0  0999 V2000
    0.9986    0.8988    0.0000 C   0  0  0  0  0  0  0  0  0  0  0  0
    1.4979    1.7476    0.0000 N   0  0  0  0  0  0  0  0  0  0  0  0
    1.4979    0.0000    0.0000 C   0  0  0  0  0  0  0  0  0  0  0  0
    0.0000    0.8988    0.0000 C   0  0  0  0  0  0  0  0  0  0  0  0
    2.4965    1.7476    0.0000 C   0  0  0  0  0  0  0  0  0  0  0  0
    2.9958    2.5964    0.0000 N   0  0  0  0  0  0  0  0  0  0  0  0
    2.9958    0.8988    0.0000 N   0  0  0  0  0  0  0  0  0  0  0  0
    3.9944    2.5964    0.0000 C   0  0  0  0  0  0  0  0  0  0  0  0
    3.9944    0.8988    0.0000 C   0  0  0  0  0  0  0  0  0  0  0  0
    4.4938    3.4951    0.0000 N   0  0  0  0  0  0  0  0  0  0  0  0
    4.4938    1.7476    0.0000 N   0  0  0  0  0  0  0  0  0  0  0  0
    4.4938    0.0000    0.0000 S   0  0  0  0  0  0  0  0  0  0  0  0
    5.4924    3.4951    0.0000 C   0  0  0  0  0  0  0  0  0  0  0  0
    5.4924    0.0000    0.0000 C   0  0  0  0  0  0  0  0  0  0  0  0
  1  2  1  0  0  0  0 
  1  3  1  0  0  0  0 
  1  4  1  0  0  0  0 
  2  5  1  0  0  0  0 
  6  5  2  0  0  0  0 
  5  7  1  0  0  0  0 
  8  6  1  0  0  0  0 
  7  9  2  0  0  0  0 
  8 10  1  0  0  0  0 
 11  8  2  0  0  0  0 
  9 11  1  0  0  0  0 
  9 12  1  0  0  0  0 
 10 13  1  0  0  0  0 
 12 14  1  0  0  0  0 
M  END
> <Name>
DESMETRYNE

> <Source>
NIST2DMolFile

> <Tox>
345

> <CAS>
1014-69-3

$$$$

  CDK

 10 10  0  0  0  0  0  0  0  0999 V2000
    1.7753    4.3782    2.1267 C   0  0  0  0  0  0  0  0  0  0  0  0
    0.8391    5.5428    1.8963 C   0  0  0  0  0  0  0  0  0  0  0  0
    2.9424    4.4027    1.1480 C   0  0  0  0  0  0  0  0  0  0  0  0
    3.8431    3.2263    1.3549 C   0  0  0  0  0  0  0  0  0  0  0  0
    3.5612    2.0424    0.6688 C   0  0  0  0  0  0  0  0  0  0  0  0
    4.9506    3.2776    2.2130 C   0  0  0  0  0  0  0  0  0  0  0  0
    4.3655    0.9213    0.8255 C   0  0  0  0  0  0  0  0  0  0  0  0
    5.7547    2.1445    2.3617 C   0  0  0  0  0  0  0  0  0  0  0  0
    5.2956    4.5109    2.9692 C   0  0  0  0  0  0  0  0  0  0  0  0
    5.4660    0.9733    1.6736 C   0  0  0  0  0  0  0  0  0  0  0  0
  1  2  1  0  0  0  0 
  1  3  1  0  0  0  0 
  3  4  1  0  0  0  0 
  5  4  2  0  0  0  0 
  4  6  1  0  0  0  0 
  7  5  1  0  0  0  0 
  6  8  2  0  0  0  0 
  6  9  1  0  0  0  0 
 10  7  2  0  0  0  0 
  8 10  1  0  0  0  0 
M  END
> <Name>
1-METHYL-2-PROPYLBENZENE

> <Source>
NIST3DMolFile

> <Tox>
185

> <CAS>
1074-17-5

$$$$

  CDK

 12 13  0  0  0  0  0  0  0  0999 V2000
    0.4037    0.8250    0.0000 C   0  0  0  0  0  0  0  0  0  0  0  0
    1.1182    0.4125    0.0000 C   0  0  0  0  0  0  0  0  0  0  0  0
   -0.3108    0.4125    0.0000 C   0  0  0  0  0  0  0  0  0  0  0  0
    1.1182   -0.4125    0.0000 C   0  0  0  0  0  0  0  0  0  0  0  0
    1.8327    0.8250    0.0000 C   0  0  0  0  0  0  0  0  0  0  0  0
   -1.0252    0.8250    0.0000 C   0  0  0  0  0  0  0  0  0  0  0  0
   -0.3108   -0.4125    0.0000 C   0  0  0  0  0  0  0  0  0  0  0  0
    0.4037   -0.8250    0.0000 C   0  0  0  0  0  0  0  0  0  0  0  0
    1.8327   -0.8250    0.0000 C   0  0  0  0  0  0  0  0  0  0  0  0
   -1.7397    0.4125    0.0000 C   0  0  0  0  0  0  0  0  0  0  0  0
   -1.0252   -0.8250    0.0000 C   0  0  0  0  0  0  0  0  0  0  0  0
   -1.7397   -0.4125    0.0000 C   0  0  0  0  0  0  0  0  0  0  0  0
  1  2  1  0  0  0  0 
  1  3  2  0  0  0  0 
  2  4  2  0  0  0  0 
  2  5  1  0  0  0  0 
  3  6  1  0  0  0  0 
  3  7  1  0  0  0  0 
  4  8  1  0  0  0  0 
  4  9  1  0  0  0  0 
  6 10  1  0  0  0  0 
  8  7  2  0  0  0  0 
  7 11  1  0  0  0  0 
 10 12  1  0  0  0  0 
 12 11  1  0  0  0  0 
M  END
> <Name>
NAPHTHALENE, 1,2,3,4-TETRAHYDRO-6,7-DIMETHYL-

> <Source>
Smiles

> <Tox>
252

> <CAS>
1076-61-5

$$$$

  CDK

 15 14  0  0  0  0  0  0  0  0999 V2000
    3.4509    2.0005    0.0000 C   0  0  0  0  0  0  0  0  0  0  0  0
    4.3511    1.5004    0.0000 C   0  0  0  0  0  0  0  0  0  0  0  0
    2.6006    1.5004    0.0000 C   0  0  0  0  0  0  0  0  0  0  0  0
    5.2013    2.0005    0.0000 C   0  0  0  0  0  0  0  0  0  0  0  0
    4.3511    0.5501    0.0000 C   0  0  0  0  0  0  0  0  0  0  0  0
    1.7504    2.0005    0.0000 O   0  0  0  0  0  0  0  0  0  0  0  0
    2.6006    0.5001    0.0000 O   0  0  0  0  0  0  0  0  0  0  0  0
    6.0515    1.5004    0.0000 O   0  0  0  0  0  0  0  0  0  0  0  0
    5.2013    3.0007    0.0000 O   0  0  0  0  0  0  0  0  0  0  0  0
    3.4509    0.0000    0.0000 C   0  0  0  0  0  0  0  0  0  0  0  0
    5.2013    0.0500    0.0000 O   0  0  0  0  0  0  0  0  0  0  0  0
    0.8502    1.5004    0.0000 C   0  0  0  0  0  0  0  0  0  0  0  0
    6.9517    2.0005    0.0000 C   0  0  0  0  0  0  0  0  0  0  0  0
    0.0000    2.0005    0.0000 C   0  0  0  0  0  0  0  0  0  0  0  0
    7.8019    1.5004    0.0000 C   0  0  0  0  0  0  0  0  0  0  0  0
  1  2  1  0  0  0  0 
  1  3  1  0  0  0  0 
  2  4  1  0  0  0  0 
  2  5  1  0  0  0  0 
  3  6  1  0  0  0  0 
  3  7  2  0  0  0  0 
  4  8  1  0  0  0  0 
  4  9  2  0  0  0  0 
  5 10  1  0  0  0  0 
  5 11  2  0  0  0  0 
  6 12  1  0  0  0  0 
  8 13  1  0  0  0  0 
 12 14  1  0  0  0  0 
 13 15  1  0  0  0  0 
M  END
> <Name>
Butanedioic acid, acetyl-, diethyl ester

> <Source>
NIST2DMolFile

> <Tox>
255

> <CAS>
1115-30-6

$$$$

  CDK

 10  9  0  0  0  0  0  0  0  0999 V2000
    1.2127    5.5969    0.0000 O   0  0  0  0  0  0  0  0  0  0  0  0
    1.2127    4.1977    0.0000 C   0  0  0  0  0  0  0  0  0  0  0  0
    0.0000    3.4981    0.0000 C   0  0  0  0  0  0  0  0  0  0  0  0
    2.4253    3.4981    0.0000 N   0  0  0  0  0  0  0  0  0  0  0  0
    3.6380    4.1977    0.0000 C   0  0  0  0  0  0  0  0  0  0  0  0
    2.4253    2.0988    0.0000 C   0  0  0  0  0  0  0  0  0  0  0  0
    4.8506    3.4981    0.0000 C   0  0  0  0  0  0  0  0  0  0  0  0
    1.2127    1.3992    0.0000 C   0  0  0  0  0  0  0  0  0  0  0  0
    6.0633    4.1977    0.0000 C   0  0  0  0  0  0  0  0  0  0  0  0
    1.2127    0.0000    0.0000 C   0  0  0  0  0  0  0  0  0  0  0  0
  1  2  2  0  0  0  0 
  2  3  1  0  0  0  0 
  2  4  1  0  0  0  0 
  4  5  1  0  0  0  0 
  4  6  1  0  0  0  0 
  5  7  1  0  0  0  0 
  6  8  1  0  0  0  0 
  7  9  1  0  0  0  0 
  8 10  1  0  0  0  0 
M  END
> <Name>
Acetamide, N,N-dipropyl-

> <Source>
IndexNet2DMolFile

> <Tox>
209.5

> <CAS>
1116-24-1

$$$$

  CDK

 13 12  0  0  0  0  0  0  0  0999 V2000
    0.0000   -5.7554    0.0000 C   0  0  0  0  0  0  0  0  0  0  0  0
    0.6641   -4.6067    0.0000 C   0  0  0  0  0  0  0  0  0  0  0  0
    0.0000   -3.4520    0.0000 C   0  0  0  0  0  0  0  0  0  0  0  0
    1.9922   -4.6067    0.0000 C   0  0  0  0  0  0  0  0  0  0  0  0
    2.6563   -3.4520    0.0000 N   0  0  0  0  0  0  0  0  0  0  0  0
    1.9922   -2.3033    0.0000 C   0  0  0  0  0  0  0  0  0  0  0  0
    3.9905   -3.4520    0.0000 C   0  0  0  0  0  0  0  0  0  0  0  0
    2.6563   -1.1487    0.0000 C   0  0  0  0  0  0  0  0  0  0  0  0
    4.6546   -4.6067    0.0000 C   0  0  0  0  0  0  0  0  0  0  0  0
    3.9905   -1.1487    0.0000 C   0  0  0  0  0  0  0  0  0  0  0  0
    1.9922   -0.0000    0.0000 C   0  0  0  0  0  0  0  0  0  0  0  0
    5.9827   -4.6067    0.0000 C   0  0  0  0  0  0  0  0  0  0  0  0
    3.9905   -5.7554    0.0000 C   0  0  0  0  0  0  0  0  0  0  0  0
  1  2  1  0  0  0  0 
  2  3  1  0  0  0  0 
  2  4  1  0  0  0  0 
  4  5  1  0  0  0  0 
  5  6  1  0  0  0  0 
  5  7  1  0  0  0  0 
  6  8  1  0  0  0  0 
  7  9  1  0  0  0  0 
  8 10  1  0  0  0  0 
  8 11  1  0  0  0  0 
  9 12  1  0  0  0  0 
  9 13  1  0  0  0  0 
M  END
> <Name>
1-Propanamine, 2-methyl-N,N-bis(2-methylpropyl)-

> <Source>
DSSTox2DMolFile

> <Tox>
191.5

> <CAS>
1116-40-1

$$$$

  CDK

 16 15  0  0  0  0  0  0  0  0999 V2000
    0.0000    0.1504    0.0000 C   0  0  0  0  0  0  0  0  0  0  0  0
    0.8522    0.6517    0.0000 C   0  0  0  0  0  0  0  0  0  0  0  0
    1.7545    0.1504    0.0000 C   0  0  0  0  0  0  0  0  0  0  0  0
    2.6067    0.6517    0.0000 C   0  0  0  0  0  0  0  0  0  0  0  0
    3.4589    0.1504    0.0000 C   0  0  0  0  0  0  0  0  0  0  0  0
    4.3612    0.6015    0.0000 C   0  0  0  0  0  0  0  0  0  0  0  0
    5.2133    0.1003    0.0000 C   0  0  0  0  0  0  0  0  0  0  0  0
    6.0655    0.6517    0.0000 C   0  0  0  0  0  0  0  0  0  0  0  0
    6.8676    0.1003    0.0000 O   0  0  0  0  0  0  0  0  0  0  0  0
    6.0655    1.6041    0.0000 O   0  0  0  0  0  0  0  0  0  0  0  0
    7.7198    0.6015    0.0000 C   0  0  0  0  0  0  0  0  0  0  0  0
    8.6221    0.1003    0.0000 C   0  0  0  0  0  0  0  0  0  0  0  0
    9.4742    0.5514    0.0000 C   0  0  0  0  0  0  0  0  0  0  0  0
   10.3766    0.0501    0.0000 C   0  0  0  0  0  0  0  0  0  0  0  0
   11.2287    0.5514    0.0000 C   0  0  0  0  0  0  0  0  0  0  0  0
   12.1310    0.0000    0.0000 C   0  0  0  0  0  0  0  0  0  0  0  0
  1  2  1  0  0  0  0 
  2  3  1  0  0  0  0 
  3  4  1  0  0  0  0 
  4  5  1  0  0  0  0 
  6  5  1  0  0  0  0 
  7  6  1  0  0  0  0 
  7  8  1  0  0  0  0 
  8  9  1  0  0  0  0 
  8 10  2  0  0  0  0 
  9 11  1  0  0  0  0 
 11 12  1  0  0  0  0 
 13 12  1  0  0  0  0 
 14 13  1  0  0  0  0 
 15 14  1  0  0  0  0 
 16 15  1  0  0  0  0 
M  END
> <Name>
Octanoic acid, hexyl ester

> <Source>
NIST2DMolFile

> <Tox>
277.4

> <CAS>
1117-55-1

$$$$

  CDK

 10  9  0  0  0  0  0  0  0  0999 V2000
    0.0000    0.0000    0.0000 C   0  0  0  0  0  0  0  0  0  0  0  0
    1.1600    0.8400   -0.4200 C   0  0  0  0  0  0  0  0  0  0  0  0
    2.5400    0.3800   -0.0600 C   0  0  0  0  0  0  0  0  0  0  0  0
    1.0000    1.8800   -1.0400 O   0  0  0  0  0  0  0  0  0  0  0  0
    2.9400   -0.7800   -0.9000 C   0  0  0  0  0  0  0  0  0  0  0  0
    3.2600   -0.6200   -2.0600 O   0  0  0  0  0  0  0  0  0  0  0  0
    2.9400   -1.9600   -0.3000 O   0  0  0  0  0  0  0  0  0  0  0  0
    3.2400   -3.0400   -1.1800 C   0  0  0  0  0  0  0  0  0  0  0  0
    2.0800   -3.2400   -2.1400 C   0  0  0  0  0  0  0  0  0  0  0  0
    0.8400   -3.2600   -1.6400 C   0  0  0  0  0  0  0  0  0  0  0  0
  1  2  1  0  0  0  0 
  2  3  1  0  0  0  0 
  2  4  2  0  0  0  0 
  3  5  1  0  0  0  0 
  5  6  2  0  0  0  0 
  5  7  1  0  0  0  0 
  7  8  1  0  0  0  0 
  8  9  1  0  0  0  0 
  9 10  2  0  0  0  0 
M  END
> <Name>
BUTANOIC ACID, 3-OXO-, 2-PROPENYL ESTER

> <Source>
NIH3DMolFile

> <Tox>
196

> <CAS>
1118-84-9

$$$$

  CDK

 14 13  0  0  0  0  0  0  0  0999 V2000
    0.0000   -0.6716    0.0000 C   0  0  0  0  0  0  0  0  0  0  0  0
    1.1491   -0.0000    0.0000 C   0  0  0  0  0  0  0  0  0  0  0  0
    2.2983   -0.6716    0.0000 C   0  0  0  0  0  0  0  0  0  0  0  0
    3.4325   -0.0000    0.0000 C   0  0  0  0  0  0  0  0  0  0  0  0
    4.5816   -0.6716    0.0000 C   0  0  0  0  0  0  0  0  0  0  0  0
    5.7308   -0.0000    0.0000 C   0  0  0  0  0  0  0  0  0  0  0  0
    6.8799   -0.6716    0.0000 C   0  0  0  0  0  0  0  0  0  0  0  0
    8.0440   -0.0000    0.0000 C   0  0  0  0  0  0  0  0  0  0  0  0
    9.1931   -0.6716    0.0000 C   0  0  0  0  0  0  0  0  0  0  0  0
   10.3422   -0.0000    0.0000 C   0  0  0  0  0  0  0  0  0  0  0  0
   11.4914   -0.6716    0.0000 C   0  0  0  0  0  0  0  0  0  0  0  0
   12.6256   -0.0000    0.0000 C   0  0  0  0  0  0  0  0  0  0  0  0
   13.7747   -0.6716    0.0000 C   0  0  0  0  0  0  0  0  0  0  0  0
   14.9238   -0.0000    0.0000 C   0  0  0  0  0  0  0  0  0  0  0  0
  1  2  2  0  0  0  0 
  2  3  1  0  0  0  0 
  3  4  1  0  0  0  0 
  4  5  1  0  0  0  0 
  5  6  1  0  0  0  0 
  6  7  1  0  0  0  0 
  7  8  1  0  0  0  0 
  8  9  1  0  0  0  0 
  9 10  1  0  0  0  0 
 10 11  1  0  0  0  0 
 11 12  1  0  0  0  0 
 12 13  1  0  0  0  0 
 13 14  1  0  0  0  0 
M  END
> <Name>
1-TETRADECENE

> <Source>
DSSTox2DMolFile

> <Tox>
233

> <CAS>
1120-36-1

$$$$

  CDK

  6  6  0  0  0  0  0  0  0  0999 V2000
    0.7916    2.4156    2.1105 C   0  0  0  0  0  0  0  0  0  0  0  0
    1.7522    1.2468    2.0243 C   0  0  0  0  0  0  0  0  0  0  0  0
    2.4860    0.9794    3.3563 C   0  0  0  0  0  0  0  0  0  0  0  0
    2.8536    1.5065    1.0355 C   0  0  0  0  0  0  0  0  0  0  0  0
    3.9875    1.0344    3.0393 C   0  0  0  0  0  0  0  0  0  0  0  0
    4.0649    1.3854    1.5884 C   0  0  0  0  0  0  0  0  0  0  0  0
  1  2  1  0  0  0  0 
  3  2  1  0  0  0  0 
  2  4  1  0  0  0  0 
  5  3  1  0  0  0  0 
  4  6  2  0  0  0  0 
  6  5  1  0  0  0  0 
M  END
> <Name>
CYCLOPENTENE, 3-METHYL-

> <Source>
NIST3DMolFile

> <Tox>
64.9

> <CAS>
1120-62-3

$$$$

  CDK

  7  7  0  0  0  0  0  0  0  0999 V2000
    3.9869    0.8371    0.9973 C   0  0  0  0  0  0  0  0  0  0  0  0
    2.5024    1.0194    0.9454 C   0  0  0  0  0  0  0  0  0  0  0  0
    4.5424    2.1761    1.4958 C   0  0  0  0  0  0  0  0  0  0  0  0
    2.1198    2.2471    1.3381 C   0  0  0  0  0  0  0  0  0  0  0  0
    3.3187    3.0594    1.7083 C   0  0  0  0  0  0  0  0  0  0  0  0
    0.7444    2.7682    1.4030 C   0  0  0  0  0  0  0  0  0  0  0  0
    3.3305    4.2040    2.1050 O   0  0  0  0  0  0  0  0  0  0  0  0
  1  2  1  0  0  0  0 
  3  1  1  0  0  0  0 
  2  4  2  0  0  0  0 
  5  3  1  0  0  0  0 
  4  5  1  0  0  0  0 
  4  6  1  0  0  0  0 
  5  7  2  0  0  0  0 
M  END
> <Name>
2-CYCLOPENTEN-1-ONE, 2-METHYL-

> <Source>
NIST3DMolFile

> <Tox>
157

> <CAS>
1120-73-6

$$$$

  CDK

  8  8  0  0  0  0  0  0  0  0999 V2000
    1.8035    2.5049    0.0000 C   0  0  0  0  0  0  0  0  0  0  0  0
    1.8035    1.5029    0.0000 N   0  0  0  0  0  0  0  0  0  0  0  0
    2.6051    0.9519    0.0000 C   0  0  0  0  0  0  0  0  0  0  0  0
    0.9519    0.9519    0.0000 C   0  0  0  0  0  0  0  0  0  0  0  0
    3.5569    1.2524    0.0000 O   0  0  0  0  0  0  0  0  0  0  0  0
    2.3045    0.0000    0.0000 C   0  0  0  0  0  0  0  0  0  0  0  0
    0.0000    1.2524    0.0000 O   0  0  0  0  0  0  0  0  0  0  0  0
    1.3025    0.0000    0.0000 C   0  0  0  0  0  0  0  0  0  0  0  0
  1  2  1  0  0  0  0 
  2  3  1  0  0  0  0 
  4  2  1  0  0  0  0 
  3  5  2  0  0  0  0 
  3  6  1  0  0  0  0 
  4  7  2  0  0  0  0 
  8  4  1  0  0  0  0 
  6  8  1  0  0  0  0 
M  END
> <Name>
N-METHYLSUCCINIMIDE

> <Source>
NIST2DMolFile

> <Tox>
234

> <CAS>
1121-07-9

$$$$

  CDK

  9  9  0  0  0  0  0  0  0  0999 V2000
    0.0000    0.0000    0.0000 O   0  0  0  0  0  0  0  0  0  0  0  0
   -0.5600    0.9800   -0.4800 N   0  0  0  0  0  0  0  0  0  0  0  0
   -0.6200    1.2400   -1.6600 O   0  0  0  0  0  0  0  0  0  0  0  0
   -1.2400    1.9000    0.4600 C   0  0  0  0  0  0  0  0  0  0  0  0
   -2.7400    1.9200    0.1000 C   0  0  0  0  0  0  0  0  0  0  0  0
   -0.5800    3.2800    0.3400 C   0  0  0  0  0  0  0  0  0  0  0  0
   -2.9800    2.5800   -1.2800 C   0  0  0  0  0  0  0  0  0  0  0  0
   -0.8400    3.9200   -1.0400 C   0  0  0  0  0  0  0  0  0  0  0  0
   -2.3400    3.9600   -1.3800 C   0  0  0  0  0  0  0  0  0  0  0  0
  1  2  1  0  0  0  0 
  2  3  2  0  0  0  0 
  2  4  1  0  0  0  0 
  4  5  1  0  0  0  0 
  4  6  1  0  0  0  0 
  5  7  1  0  0  0  0 
  8  6  1  0  0  0  0 
  7  9  1  0  0  0  0 
  9  8  1  0  0  0  0 
M  CHG  1   1  -1
M  CHG  1   2   1
M  END
> <Name>
Cyclohexane, nitro-

> <Source>
NIH3DMolFile

> <Tox>
205

> <CAS>
1122-60-7

$$$$

  CDK

  9  9  0  0  0  0  0  0  0  0999 V2000
    0.0000   -2.3037    0.0000 C   0  0  0  0  0  0  0  0  0  0  0  0
    0.6655   -1.1542    0.0000 C   0  0  0  0  0  0  0  0  0  0  0  0
    0.0000   -0.0000    0.0000 O   0  0  0  0  0  0  0  0  0  0  0  0
    1.9965   -1.1542    0.0000 C   0  0  0  0  0  0  0  0  0  0  0  0
    2.6574   -0.0000    0.0000 C   0  0  0  0  0  0  0  0  0  0  0  0
    2.6574   -2.3037    0.0000 N   0  0  0  0  0  0  0  0  0  0  0  0
    3.9884   -0.0000    0.0000 C   0  0  0  0  0  0  0  0  0  0  0  0
    3.9884   -2.3037    0.0000 C   0  0  0  0  0  0  0  0  0  0  0  0
    4.6539   -1.1542    0.0000 C   0  0  0  0  0  0  0  0  0  0  0  0
  1  2  1  0  0  0  0 
  2  3  2  0  0  0  0 
  2  4  1  0  0  0  0 
  4  5  2  0  0  0  0 
  4  6  1  0  0  0  0 
  5  7  1  0  0  0  0 
  8  6  2  0  0  0  0 
  7  9  2  0  0  0  0 
  9  8  1  0  0  0  0 
M  END
> <Name>
2-ACETYLPYRIDINE

> <Source>
DSSTox2DMolFile

> <Tox>
192

> <CAS>
1122-62-9

$$$$

  CDK

  9  9  0  0  0  0  0  0  0  0999 V2000
    1.0078    0.0000    0.0000 C   0  0  0  0  0  0  0  0  0  0  0  0
    1.5116    0.8566    0.0000 C   0  0  0  0  0  0  0  0  0  0  0  0
    0.0000    0.0000    0.0000 C   0  0  0  0  0  0  0  0  0  0  0  0
    2.5194    0.8566    0.0000 C   0  0  0  0  0  0  0  0  0  0  0  0
    3.0233    1.7132    0.0000 C   0  0  0  0  0  0  0  0  0  0  0  0
    3.0233    0.0000    0.0000 C   0  0  0  0  0  0  0  0  0  0  0  0
    4.0310    1.7132    0.0000 C   0  0  0  0  0  0  0  0  0  0  0  0
    4.0310    0.0000    0.0000 C   0  0  0  0  0  0  0  0  0  0  0  0
    4.5349    0.8566    0.0000 N   0  0  0  0  0  0  0  0  0  0  0  0
  1  2  1  0  0  0  0 
  1  3  1  0  0  0  0 
  2  4  1  0  0  0  0 
  5  4  2  0  0  0  0 
  4  6  1  0  0  0  0 
  7  5  1  0  0  0  0 
  6  8  2  0  0  0  0 
  9  7  2  0  0  0  0 
  8  9  1  0  0  0  0 
M  END
> <Name>
4-PROPYLPYRIDINE

> <Source>
NIST2DMolFile

> <Tox>
185

> <CAS>
1122-81-2

$$$$

  CDK

 11 11  0  0  0  0  0  0  0  0999 V2000
    0.0000   -2.6619    0.0000 C   0  0  0  0  0  0  0  0  0  0  0  0
    1.1535   -2.0004    0.0000 C   0  0  0  0  0  0  0  0  0  0  0  0
    2.3070   -2.6619    0.0000 C   0  0  0  0  0  0  0  0  0  0  0  0
    3.4605   -2.0004    0.0000 C   0  0  0  0  0  0  0  0  0  0  0  0
    4.6059   -2.6619    0.0000 O   0  0  0  0  0  0  0  0  0  0  0  0
    5.7594   -2.0004    0.0000 C   0  0  0  0  0  0  0  0  0  0  0  0
    5.7594   -0.6695    0.0000 C   0  0  0  0  0  0  0  0  0  0  0  0
    6.9128   -2.6619    0.0000 C   0  0  0  0  0  0  0  0  0  0  0  0
    6.9128   -0.0000    0.0000 C   0  0  0  0  0  0  0  0  0  0  0  0
    8.0663   -2.0004    0.0000 C   0  0  0  0  0  0  0  0  0  0  0  0
    8.0663   -0.6695    0.0000 C   0  0  0  0  0  0  0  0  0  0  0  0
  1  2  1  0  0  0  0 
  2  3  1  0  0  0  0 
  3  4  1  0  0  0  0 
  4  5  1  0  0  0  0 
  5  6  1  0  0  0  0 
  6  7  2  0  0  0  0 
  6  8  1  0  0  0  0 
  7  9  1  0  0  0  0 
 10  8  2  0  0  0  0 
  9 11  2  0  0  0  0 
 11 10  1  0  0  0  0 
M  END
> <Name>
BUTYL PHENYL ETHER

> <Source>
DSSTox2DMolFile

> <Tox>
210

> <CAS>
1126-79-0

$$$$

  CDK

 12 12  0  0  0  0  0  0  0  0999 V2000
    0.0000    0.0000    0.0000 C   0  0  0  0  0  0  0  0  0  0  0  0
    0.6400    0.6200    1.2400 C   0  0  0  0  0  0  0  0  0  0  0  0
    1.5600    1.6400    0.8400 O   0  0  0  0  0  0  0  0  0  0  0  0
    0.9800    2.8400    0.7400 C   0  0  0  0  0  0  0  0  0  0  0  0
   -0.2000    3.0000    0.7400 O   0  0  0  0  0  0  0  0  0  0  0  0
    1.9400    3.9800    0.6200 C   0  0  0  0  0  0  0  0  0  0  0  0
    3.3200    3.7600    0.6000 C   0  0  0  0  0  0  0  0  0  0  0  0
    1.4400    5.2800    0.5000 C   0  0  0  0  0  0  0  0  0  0  0  0
    4.2000    4.8400    0.4800 C   0  0  0  0  0  0  0  0  0  0  0  0
    2.3200    6.3800    0.3800 C   0  0  0  0  0  0  0  0  0  0  0  0
    5.9000    4.5600    0.4800 Cl  0  0  0  0  0  0  0  0  0  0  0  0
    3.7000    6.1400    0.3800 C   0  0  0  0  0  0  0  0  0  0  0  0
  1  2  1  0  0  0  0 
  2  3  1  0  0  0  0 
  3  4  1  0  0  0  0 
  4  5  2  0  0  0  0 
  4  6  1  0  0  0  0 
  6  7  2  0  0  0  0 
  6  8  1  0  0  0  0 
  7  9  1  0  0  0  0 
 10  8  2  0  0  0  0 
  9 11  1  0  0  0  0 
  9 12  2  0  0  0  0 
 12 10  1  0  0  0  0 
M  END
> <Name>
BENZOIC ACID, 3-CHLORO-, ETHYL ESTER

> <Source>
NIH3DMolFile

> <Tox>
243

> <CAS>
1128-76-3

$$$$

  CDK

 13 14  0  0  0  0  0  0  0  0999 V2000
    1.1200    3.1733    0.0000 C   0  0  0  0  0  0  0  0  0  0  0  0
    1.1200    1.7733    0.0000 C   0  0  0  0  0  0  0  0  0  0  0  0
    2.4733    3.5933    0.0000 N   0  0  0  0  0  0  0  0  0  0  0  0
    0.0000    4.0133    0.0000 C   0  0  0  0  0  0  0  0  0  0  0  0
    2.4733    1.3533    0.0000 C   0  0  0  0  0  0  0  0  0  0  0  0
    3.2667    2.4733    0.0000 N   0  0  0  0  0  0  0  0  0  0  0  0
    2.8933    4.9467    0.0000 C   0  0  0  0  0  0  0  0  0  0  0  0
    2.8933    0.0000    0.0000 C   0  0  0  0  0  0  0  0  0  0  0  0
    4.2933    5.2267    0.0000 C   0  0  0  0  0  0  0  0  0  0  0  0
    1.9600    5.9733    0.0000 C   0  0  0  0  0  0  0  0  0  0  0  0
    4.7133    6.5333    0.0000 C   0  0  0  0  0  0  0  0  0  0  0  0
    2.4267    7.2800    0.0000 C   0  0  0  0  0  0  0  0  0  0  0  0
    3.7800    7.5600    0.0000 C   0  0  0  0  0  0  0  0  0  0  0  0
  1  2  2  0  0  0  0 
  1  3  1  0  0  0  0 
  1  4  1  0  0  0  0 
  2  5  1  0  0  0  0 
  6  3  1  0  0  0  0 
  3  7  1  0  0  0  0 
  5  6  2  0  0  0  0 
  5  8  1  0  0  0  0 
  7  9  2  0  0  0  0 
  7 10  1  0  0  0  0 
  9 11  1  0  0  0  0 
 12 10  2  0  0  0  0 
 11 13  2  0  0  0  0 
 13 12  1  0  0  0  0 
M  END
> <Name>
1H-Pyrazole, 3,5-dimethyl-1-phenyl-

> <Source>
IndexNet2DMolFile

> <Tox>
273

> <CAS>
1131-16-4

$$$$

  CDK

 13 14  0  0  0  0  0  0  0  0999 V2000
    2.2775    1.1134    0.0000 N   0  0  0  0  0  0  0  0  0  0  0  0
    1.7208    1.9232    0.0000 C   0  0  0  0  0  0  0  0  0  0  0  0
    1.6701    0.3037    0.0000 N   0  0  0  0  0  0  0  0  0  0  0  0
    3.2897    1.1134    0.0000 C   0  0  0  0  0  0  0  0  0  0  0  0
    0.7592    1.6195    0.0000 C   0  0  0  0  0  0  0  0  0  0  0  0
    2.1762    2.8342    0.0000 N   0  0  0  0  0  0  0  0  0  0  0  0
    0.7592    0.7085    0.0000 C   0  0  0  0  0  0  0  0  0  0  0  0
    3.7452    0.2531    0.0000 C   0  0  0  0  0  0  0  0  0  0  0  0
    3.7452    1.9738    0.0000 C   0  0  0  0  0  0  0  0  0  0  0  0
    0.0000    0.0000    0.0000 C   0  0  0  0  0  0  0  0  0  0  0  0
    4.8080    0.2531    0.0000 C   0  0  0  0  0  0  0  0  0  0  0  0
    4.8080    1.9738    0.0000 C   0  0  0  0  0  0  0  0  0  0  0  0
    5.2635    1.1134    0.0000 C   0  0  0  0  0  0  0  0  0  0  0  0
  1  2  1  0  0  0  0 
  3  1  1  0  0  0  0 
  1  4  1  0  0  0  0 
  2  5  2  0  0  0  0 
  2  6  1  0  0  0  0 
  7  3  2  0  0  0  0 
  4  8  2  0  0  0  0 
  9  4  1  0  0  0  0 
  5  7  1  0  0  0  0 
  7 10  1  0  0  0  0 
  8 11  1  0  0  0  0 
 12  9  2  0  0  0  0 
 11 13  2  0  0  0  0 
 13 12  1  0  0  0  0 
M  END
> <Name>
1H-Pyrazol-5-amine, 3-methyl-1-phenyl-

> <Source>
NIST2DMolFile

> <Tox>
333

> <CAS>
1131-18-6

$$$$

  CDK

  7  6  0  0  0  0  0  0  0  0999 V2000
    0.9141    0.4155    0.8126 C   0  0  0  0  0  0  0  0  0  0  0  0
   -0.0191   -0.5074   -0.0036 C   0  0  0  0  0  0  0  0  0  0  0  0
    1.7630    1.1291   -0.0573 O   0  0  0  0  0  0  0  0  0  0  0  0
   -0.9872    0.3233   -0.8640 C   0  0  0  0  0  0  0  0  0  0  0  0
   -0.8194   -1.3638    0.9799 C   0  0  0  0  0  0  0  0  0  0  0  0
    0.7986   -1.4271   -0.9077 C   0  0  0  0  0  0  0  0  0  0  0  0
   -1.8719    1.2335   -0.0396 C   0  0  0  0  0  0  0  0  0  0  0  0
  1  2  1  0  0  0  0 
  1  3  1  0  0  0  0 
  2  4  1  0  0  0  0 
  2  5  1  0  0  0  0 
  2  6  1  0  0  0  0 
  4  7  1  0  0  0  0 
M  END
> <Name>
2,2-DIMETHYL-1-BUTANOL

> <Source>
DougDB3DMolFile

> <Tox>
136.5

> <CAS>
1185-33-7

$$$$

  CDK

 10  9  0  0  0  0  0  0  0  0999 V2000
    4.2452    2.9425    2.6812 C   0  0  0  0  0  0  0  0  0  0  0  0
    2.8931    3.2016    1.9926 C   0  0  0  0  0  0  0  0  0  0  0  0
    5.1845    2.1136    1.8161 C   0  0  0  0  0  0  0  0  0  0  0  0
    2.0244    4.0673    2.9233 C   0  0  0  0  0  0  0  0  0  0  0  0
    3.1248    3.9486    0.6802 C   0  0  0  0  0  0  0  0  0  0  0  0
    2.2070    1.8632    1.7205 C   0  0  0  0  0  0  0  0  0  0  0  0
    6.5678    1.9810    2.4488 C   0  0  0  0  0  0  0  0  0  0  0  0
    0.6669    4.3891    2.3363 C   0  0  0  0  0  0  0  0  0  0  0  0
    7.4182    0.9984    1.6625 C   0  0  0  0  0  0  0  0  0  0  0  0
    7.2509    3.3375    2.5242 C   0  0  0  0  0  0  0  0  0  0  0  0
  1  2  1  0  0  0  0 
  1  3  1  0  0  0  0 
  2  4  1  0  0  0  0 
  2  5  1  0  0  0  0 
  2  6  1  0  0  0  0 
  3  7  1  0  0  0  0 
  4  8  1  0  0  0  0 
  7  9  1  0  0  0  0 
  7 10  1  0  0  0  0 
M  END
> <Name>
HEPTANE, 2,5,5-TRIMETHYL-

> <Source>
NIST3DMolFile

> <Tox>
152.8

> <CAS>
1189-99-7

$$$$

  CDK

  8  7  0  0  0  0  0  0  0  0999 V2000
    1.7862    1.3521    0.0000 O   0  0  0  0  0  0  0  0  0  0  0  0
    1.7862    0.5271    0.0000 C   0  0  0  0  0  0  0  0  0  0  0  0
    2.5006    0.1146    0.0000 O   0  0  0  0  0  0  0  0  0  0  0  0
    1.0717    0.1146    0.0000 C   0  0  0  0  0  0  0  0  0  0  0  0
    0.3572    0.5271    0.0000 C   0  0  0  0  0  0  0  0  0  0  0  0
   -0.3572    0.1146    0.0000 C   0  0  0  0  0  0  0  0  0  0  0  0
   -1.0717   -0.2979    0.0000 C   0  0  0  0  0  0  0  0  0  0  0  0
   -1.7862   -0.7104    0.0000 C   0  0  0  0  0  0  0  0  0  0  0  0
  1  2  2  0  0  0  0 
  2  3  1  0  0  0  0 
  2  4  1  0  0  0  0 
  4  5  2  0  0  0  0 
  5  6  1  0  0  0  0 
  6  7  1  0  0  0  0 
  7  8  1  0  0  0  0 
M  END
> <Name>
2-Hexenoic acid

> <Source>
Smiles

> <Tox>
216.5

> <CAS>
1191-04-4

$$$$

  CDK

  7  7  0  0  0  0  0  0  0  0999 V2000
    2.0832    2.8336    3.8504 C   0  0  0  0  0  0  0  0  0  0  0  0
    2.3326    1.5075    3.1557 C   0  0  0  0  0  0  0  0  0  0  0  0
    2.0821    1.5391    1.6349 C   0  0  0  0  0  0  0  0  0  0  0  0
    3.8041    1.0865    3.2867 C   0  0  0  0  0  0  0  0  0  0  0  0
    0.9360    2.4192    1.1866 C   0  0  0  0  0  0  0  0  0  0  0  0
    3.4213    1.9577    1.0220 C   0  0  0  0  0  0  0  0  0  0  0  0
    4.4992    1.4479    1.9743 C   0  0  0  0  0  0  0  0  0  0  0  0
  1  2  1  0  0  0  0 
  2  3  1  0  0  0  0 
  4  2  1  0  0  0  0 
  3  5  1  0  0  0  0 
  3  6  1  0  0  0  0 
  7  4  1  0  0  0  0 
  6  7  1  0  0  0  0 
M  END
> <Name>
1,2-DIMETHYLCYCLOPENTANE (CIS)

> <Source>
NIST3DMolFile

> <Tox>
99.5

> <CAS>
1192-18-3

$$$$

  CDK

  7  7  0  0  0  0  0  0  0  0999 V2000
    0.0000   -2.2427    0.0000 C   0  0  0  0  0  0  0  0  0  0  0  0
    1.2194   -1.7157    0.0000 C   0  0  0  0  0  0  0  0  0  0  0  0
    0.1462   -3.5737    0.0000 C   0  0  0  0  0  0  0  0  0  0  0  0
    2.1003   -2.6927    0.0000 C   0  0  0  0  0  0  0  0  0  0  0  0
    1.4887   -0.4001    0.0000 N   0  0  0  0  0  0  0  0  0  0  0  0
    1.4425   -3.8468    0.0000 C   0  0  0  0  0  0  0  0  0  0  0  0
    2.7581   -0.0000    0.0000 O   0  0  0  0  0  0  0  0  0  0  0  0
  1  2  1  0  0  0  0 
  1  3  1  0  0  0  0 
  2  4  1  0  0  0  0 
  2  5  2  0  0  0  0 
  3  6  1  0  0  0  0 
  4  6  1  0  0  0  0 
  5  7  1  0  0  0  0 
M  END
> <Name>
Cyclopentanone, oxime

> <Source>
DSSTox2DMolFile

> <Tox>
196

> <CAS>
1192-28-5

$$$$

  CDK

  9  9  0  0  0  0  0  0  0  0999 V2000
    2.5098    0.8708    0.0000 C   0  0  0  0  0  0  0  0  0  0  0  0
    3.0220    1.6903    0.0000 C   0  0  0  0  0  0  0  0  0  0  0  0
    1.5366    0.8708    0.0000 C   0  0  0  0  0  0  0  0  0  0  0  0
    2.4586    2.6123    0.0000 C   0  0  0  0  0  0  0  0  0  0  0  0
    4.0464    1.6903    0.0000 Cl  0  0  0  0  0  0  0  0  0  0  0  0
    0.9732    1.6903    0.0000 C   0  0  0  0  0  0  0  0  0  0  0  0
    1.0756    0.0000    0.0000 Cl  0  0  0  0  0  0  0  0  0  0  0  0
    1.5366    2.6123    0.0000 C   0  0  0  0  0  0  0  0  0  0  0  0
    0.0000    1.6903    0.0000 Br  0  0  0  0  0  0  0  0  0  0  0  0
  1  2  2  0  0  0  0 
  3  1  1  0  0  0  0 
  2  4  1  0  0  0  0 
  2  5  1  0  0  0  0 
  6  3  2  0  0  0  0 
  3  7  1  0  0  0  0 
  4  8  2  0  0  0  0 
  8  6  1  0  0  0  0 
  6  9  1  0  0  0  0 
M  END
> <Name>
1-Bromo-2,4-dichlorobenzene

> <Source>
NIST2DMolFile

> <Tox>
235

> <CAS>
1193-72-2

$$$$

  CDK

  9  9  0  0  0  0  0  0  0  0999 V2000
    2.4790    1.7201    0.0000 C   0  0  0  0  0  0  0  0  0  0  0  0
    1.9731    0.8601    0.0000 C   0  0  0  0  0  0  0  0  0  0  0  0
    3.4909    1.7201    0.0000 C   0  0  0  0  0  0  0  0  0  0  0  0
    2.4790    0.0000    0.0000 C   0  0  0  0  0  0  0  0  0  0  0  0
    1.0118    0.8601    0.0000 C   0  0  0  0  0  0  0  0  0  0  0  0
    3.9968    0.8601    0.0000 C   0  0  0  0  0  0  0  0  0  0  0  0
    3.4909    0.0000    0.0000 C   0  0  0  0  0  0  0  0  0  0  0  0
    0.0000    0.8601    0.0000 N   0  0  0  0  0  0  0  0  0  0  0  0
    5.0086    0.8601    0.0000 F   0  0  0  0  0  0  0  0  0  0  0  0
  1  2  2  0  0  0  0 
  3  1  1  0  0  0  0 
  2  4  1  0  0  0  0 
  2  5  1  0  0  0  0 
  6  3  2  0  0  0  0 
  4  7  2  0  0  0  0 
  5  8  3  0  0  0  0 
  6  9  1  0  0  0  0 
  7  6  1  0  0  0  0 
M  END
> <Name>
Benzonitrile, 4-fluoro-

> <Source>
NIST2DMolFile

> <Tox>
188.8

> <CAS>
1194-02-1

$$$$

  CDK

 10 10  0  0  0  0  0  0  0  0999 V2000
    2.3091   -2.6603    0.0000 C   0  0  0  0  0  0  0  0  0  0  0  0
    2.3091   -1.3301    0.0000 C   0  0  0  0  0  0  0  0  0  0  0  0
    3.4637   -3.3147    0.0000 C   0  0  0  0  0  0  0  0  0  0  0  0
    1.1546   -3.3147    0.0000 C   0  0  0  0  0  0  0  0  0  0  0  0
    2.3091   -0.0000    0.0000 N   0  0  0  0  0  0  0  0  0  0  0  0
    4.6129   -2.6603    0.0000 Cl  0  0  0  0  0  0  0  0  0  0  0  0
    3.4637   -4.6449    0.0000 C   0  0  0  0  0  0  0  0  0  0  0  0
    0.0000   -2.6603    0.0000 Cl  0  0  0  0  0  0  0  0  0  0  0  0
    1.1546   -4.6449    0.0000 C   0  0  0  0  0  0  0  0  0  0  0  0
    2.3091   -5.3206    0.0000 C   0  0  0  0  0  0  0  0  0  0  0  0
  1  2  1  0  0  0  0 
  1  3  1  0  0  0  0 
  1  4  2  0  0  0  0 
  2  5  3  0  0  0  0 
  3  6  1  0  0  0  0 
  3  7  2  0  0  0  0 
  4  8  1  0  0  0  0 
  4  9  1  0  0  0  0 
 10  7  1  0  0  0  0 
 10  9  2  0  0  0  0 
M  END
> <Name>
2,6-DICHLOROBENZONITRILE

> <Source>
DSSTox2DMolFile

> <Tox>
270

> <CAS>
1194-65-6

$$$$

  CDK

 10 10  0  0  0  0  0  0  0  0999 V2000
    5.5797    5.5035    2.3005 C   0  0  0  0  0  0  0  0  0  0  0  0
    5.6627    4.1257    1.7409 C   0  0  0  0  0  0  0  0  0  0  0  0
    6.8479    3.6099    1.3945 C   0  0  0  0  0  0  0  0  0  0  0  0
    4.4183    3.3569    1.5789 C   0  0  0  0  0  0  0  0  0  0  0  0
    3.1869    3.8454    2.0269 C   0  0  0  0  0  0  0  0  0  0  0  0
    4.4517    2.0993    0.9629 C   0  0  0  0  0  0  0  0  0  0  0  0
    2.0257    3.1013    1.8598 C   0  0  0  0  0  0  0  0  0  0  0  0
    3.2935    1.3554    0.7952 C   0  0  0  0  0  0  0  0  0  0  0  0
    2.0674    1.8520    1.2413 C   0  0  0  0  0  0  0  0  0  0  0  0
    0.8278    1.0578    1.0476 C   0  0  0  0  0  0  0  0  0  0  0  0
  1  2  1  0  0  0  0 
  2  3  2  0  0  0  0 
  2  4  1  0  0  0  0 
  5  4  2  0  0  0  0 
  4  6  1  0  0  0  0 
  7  5  1  0  0  0  0 
  6  8  2  0  0  0  0 
  9  7  2  0  0  0  0 
  8  9  1  0  0  0  0 
  9 10  1  0  0  0  0 
M  END
> <Name>
Benzene, 1-methyl-4-(1-methylethenyl)-

> <Source>
NIST3DMolFile

> <Tox>
185.3

> <CAS>
1195-32-0

$$$$

  CDK

 11 11  0  0  0  0  0  0  0  0999 V2000
    2.0041    2.6594    3.5314 C   0  0  0  0  0  0  0  0  0  0  0  0
    2.6384    3.2009    2.2436 C   0  0  0  0  0  0  0  0  0  0  0  0
    1.7267    1.1732    3.5002 C   0  0  0  0  0  0  0  0  0  0  0  0
    1.7633    2.9241    1.0168 C   0  0  0  0  0  0  0  0  0  0  0  0
    4.0382    2.6732    2.0762 C   0  0  0  0  0  0  0  0  0  0  0  0
    0.6523    3.9394    0.8671 C   0  0  0  0  0  0  0  0  0  0  0  0
    5.1108    3.4459    2.5291 C   0  0  0  0  0  0  0  0  0  0  0  0
    4.2962    1.4323    1.4902 C   0  0  0  0  0  0  0  0  0  0  0  0
    6.4155    2.9854    2.3967 C   0  0  0  0  0  0  0  0  0  0  0  0
    5.6023    0.9743    1.3581 C   0  0  0  0  0  0  0  0  0  0  0  0
    6.6641    1.7493    1.8108 C   0  0  0  0  0  0  0  0  0  0  0  0
  1  2  1  0  0  0  0 
  1  3  1  0  0  0  0 
  2  4  1  0  0  0  0 
  2  5  1  0  0  0  0 
  4  6  1  0  0  0  0 
  5  7  2  0  0  0  0 
  8  5  1  0  0  0  0 
  7  9  1  0  0  0  0 
 10  8  2  0  0  0  0 
  9 11  2  0  0  0  0 
 11 10  1  0  0  0  0 
M  END
> <Name>
BENZENE, (1-ETHYLPROPYL)-

> <Source>
NIST3DMolFile

> <Tox>
187.5

> <CAS>
1196-58-3

$$$$

  CDK

 11 11  0  0  0  0  0  0  0  0999 V2000
    2.0620   -0.4521    0.4249 O   0  0  0  0  0  0  0  0  0  0  0  0
    0.7506   -0.1270    0.2598 C   0  0  0  0  0  0  0  0  0  0  0  0
    3.0274    0.4563   -0.1026 C   0  0  0  0  0  0  0  0  0  0  0  0
   -0.2096   -1.1327    0.1494 C   0  0  0  0  0  0  0  0  0  0  0  0
    0.3671    1.2128    0.2018 C   0  0  0  0  0  0  0  0  0  0  0  0
    4.2704   -0.3157   -0.4909 C   0  0  0  0  0  0  0  0  0  0  0  0
   -1.5533   -0.7985   -0.0192 C   0  0  0  0  0  0  0  0  0  0  0  0
   -0.9766    1.5471    0.0334 C   0  0  0  0  0  0  0  0  0  0  0  0
   -2.5089   -1.8331   -0.1310 N   0  0  0  0  0  0  0  0  0  0  0  0
   -1.9368    0.5414   -0.0772 C   0  0  0  0  0  0  0  0  0  0  0  0
   -3.2922    0.9016   -0.2484 N   0  0  0  0  0  0  0  0  0  0  0  0
  1  2  1  0  0  0  0 
  1  3  1  0  0  0  0 
  2  4  2  0  0  0  0 
  2  5  1  0  0  0  0 
  3  6  1  0  0  0  0 
  7  4  1  0  0  0  0 
  5  8  2  0  0  0  0 
  9  7  1  0  0  0  0 
  7 10  2  0  0  0  0 
 10  8  1  0  0  0  0 
 11 10  1  0  0  0  0 
M  END
> <Name>
1,2-Benzenediamine, 4-ethoxy-

> <Source>
Chemidplus3DMolFile

> <Tox>
295

> <CAS>
1197-37-1

$$$$

  CDK

 13 13  0  0  0  0  0  0  0  0999 V2000
    3.1164   -0.9308    0.5711 O   0  0  0  0  0  0  0  0  0  0  0  0
    2.0043   -1.1719    0.0635 C   0  0  0  0  0  0  0  0  0  0  0  0
    0.9591   -0.1585    0.0112 C   0  0  0  0  0  0  0  0  0  0  0  0
    1.7537   -2.5614   -0.5089 C   0  0  0  0  0  0  0  0  0  0  0  0
   -0.3749   -0.5643    0.0483 C   0  0  0  0  0  0  0  0  0  0  0  0
    1.2734    1.1977   -0.0757 C   0  0  0  0  0  0  0  0  0  0  0  0
   -1.3947    0.3861   -0.0014 C   0  0  0  0  0  0  0  0  0  0  0  0
    0.2536    2.1481   -0.1254 C   0  0  0  0  0  0  0  0  0  0  0  0
    2.6936    1.6601   -0.1161 C   0  0  0  0  0  0  0  0  0  0  0  0
   -2.8213   -0.0474    0.0385 C   0  0  0  0  0  0  0  0  0  0  0  0
   -1.0804    1.7423   -0.0881 C   0  0  0  0  0  0  0  0  0  0  0  0
   -3.1799   -0.7722    1.3495 C   0  0  0  0  0  0  0  0  0  0  0  0
   -3.2029   -0.9279   -1.1665 C   0  0  0  0  0  0  0  0  0  0  0  0
  1  2  2  0  0  0  0 
  3  2  1  0  0  0  0 
  2  4  1  0  0  0  0 
  5  3  1  0  0  0  0 
  3  6  2  0  0  0  0 
  7  5  2  0  0  0  0 
  6  8  1  0  0  0  0 
  6  9  1  0  0  0  0 
 10  7  1  0  0  0  0 
  7 11  1  0  0  0  0 
 11  8  2  0  0  0  0 
 10 12  1  0  0  0  0 
 10 13  1  0  0  0  0 
M  END
> <Name>
2-Acetyl-4-isopropyltoluene

> <Source>
Chemidplus3DMolFile

> <Tox>
249.5

> <CAS>
1202-08-0

$$$$

  CDK

 14 15  0  0  0  0  0  0  0  0999 V2000
    0.0000    0.0000    0.0000 C   0  0  0  0  0  0  0  0  0  0  0  0
    0.5800    1.2400   -0.1600 N   0  0  0  0  0  0  0  0  0  0  0  0
    0.7800   -1.1200    0.3200 C   0  0  0  0  0  0  0  0  0  0  0  0
   -1.4000   -0.1400   -0.1400 C   0  0  0  0  0  0  0  0  0  0  0  0
    1.8800    1.3200   -0.5800 C   0  0  0  0  0  0  0  0  0  0  0  0
    0.1800   -2.3800    0.4800 C   0  0  0  0  0  0  0  0  0  0  0  0
   -2.0000   -1.4000    0.0400 C   0  0  0  0  0  0  0  0  0  0  0  0
    2.6800    2.4000   -0.1800 C   0  0  0  0  0  0  0  0  0  0  0  0
    2.4000    0.3200   -1.4400 C   0  0  0  0  0  0  0  0  0  0  0  0
   -1.2200   -2.5200    0.3400 C   0  0  0  0  0  0  0  0  0  0  0  0
    4.0200    2.4800   -0.6200 C   0  0  0  0  0  0  0  0  0  0  0  0
    3.7400    0.4200   -1.8800 C   0  0  0  0  0  0  0  0  0  0  0  0
    4.5400    1.5000   -1.4600 C   0  0  0  0  0  0  0  0  0  0  0  0
    6.1600    1.6000   -2.0000 Cl  0  0  0  0  0  0  0  0  0  0  0  0
  1  2  1  0  0  0  0 
  1  3  2  0  0  0  0 
  1  4  1  0  0  0  0 
  2  5  1  0  0  0  0 
  3  6  1  0  0  0  0 
  7  4  2  0  0  0  0 
  5  8  2  0  0  0  0 
  5  9  1  0  0  0  0 
  6 10  2  0  0  0  0 
 10  7  1  0  0  0  0 
  8 11  1  0  0  0  0 
  9 12  2  0  0  0  0 
 11 13  2  0  0  0  0 
 13 12  1  0  0  0  0 
 13 14  1  0  0  0  0 
M  END
> <Name>
4-CHLORO-N-PHENYLBENZENAMINE

> <Source>
NIH3DMolFile

> <Tox>
335

> <CAS>
1205-71-6

$$$$

  CDK

  8  8  0  0  0  0  0  0  0  0999 V2000
    2.5467   -1.2087    0.0006 Cl  0  0  0  0  0  0  0  0  0  0  0  0
    1.3953    0.1607   -0.0005 C   0  0  0  0  0  0  0  0  0  0  0  0
    1.8760    1.3302   -0.0001 O   0  0  0  0  0  0  0  0  0  0  0  0
   -0.0142   -0.0351   -0.0001 C   0  0  0  0  0  0  0  0  0  0  0  0
   -0.8090    1.0670    0.0003 O   0  0  0  0  0  0  0  0  0  0  0  0
   -0.7762   -1.1803   -0.0004 C   0  0  0  0  0  0  0  0  0  0  0  0
   -2.0925    0.6206    0.0003 C   0  0  0  0  0  0  0  0  0  0  0  0
   -2.1259   -0.7544    0.0000 C   0  0  0  0  0  0  0  0  0  0  0  0
  1  2  1  0  0  0  0 
  3  2  2  0  0  0  0 
  4  2  1  0  0  0  0 
  5  4  1  0  0  0  0 
  4  6  2  0  0  0  0 
  5  7  1  0  0  0  0 
  6  8  1  0  0  0  0 
  8  7  2  0  0  0  0 
M  END
> <Name>
Furoyl Chloride

> <Source>
Chemidplus3DMolFile

> <Tox>
170

> <CAS>
1300-32-9

$$$$

  CDK

  7  7  0  0  0  0  0  0  0  0999 V2000
    1.1718    1.2237    0.2914 C   0  0  0  0  0  0  0  0  0  0  0  0
    1.8450    0.0080   -0.3342 C   0  0  0  0  0  0  0  0  0  0  0  0
   -0.3108    1.2918   -0.0848 C   0  0  0  0  0  0  0  0  0  0  0  0
    1.1599   -1.2861    0.1052 C   0  0  0  0  0  0  0  0  0  0  0  0
   -1.0148   -0.0404   -0.0103 C   0  0  0  0  0  0  0  0  0  0  0  0
   -0.3377   -1.1974    0.0914 C   0  0  0  0  0  0  0  0  0  0  0  0
   -2.5135    0.0003   -0.0586 C   0  0  0  0  0  0  0  0  0  0  0  0
  1  2  1  0  0  0  0 
  1  3  1  0  0  0  0 
  2  4  1  0  0  0  0 
  3  5  1  0  0  0  0 
  4  6  1  0  0  0  0 
  5  6  2  0  0  0  0 
  5  7  1  0  0  0  0 
M  END
> <Name>
Cyclohexene, methyl-

> <Source>
Chemidplus3DMolFile

> <Tox>
101.667

> <CAS>
1335-86-0

$$$$

  CDK

 13 14  0  0  0  0  0  0  0  0999 V2000
   -1.4136    0.9246   -0.6222 C   0  0  0  0  0  0  0  0  0  0  0  0
   -0.5721   -0.3712   -0.7930 C   0  0  0  0  0  0  0  0  0  0  0  0
   -2.1365    0.9302    0.7328 C   0  0  0  0  0  0  0  0  0  0  0  0
   -0.6833    2.1063   -0.8348 O   0  0  0  0  0  0  0  0  0  0  0  0
   -1.2553   -1.5621   -0.1055 C   0  0  0  0  0  0  0  0  0  0  0  0
    0.8414   -0.2402   -0.2935 C   0  0  0  0  0  0  0  0  0  0  0  0
   -3.1615   -0.1931    0.8001 C   0  0  0  0  0  0  0  0  0  0  0  0
   -2.7629   -1.3941   -0.0493 C   0  0  0  0  0  0  0  0  0  0  0  0
    1.1137    0.1161    1.0302 C   0  0  0  0  0  0  0  0  0  0  0  0
    1.9052   -0.4954   -1.1616 C   0  0  0  0  0  0  0  0  0  0  0  0
    2.4256    0.2114    1.4778 C   0  0  0  0  0  0  0  0  0  0  0  0
    3.2173   -0.3992   -0.7110 C   0  0  0  0  0  0  0  0  0  0  0  0
    3.4800   -0.0468    0.6081 C   0  0  0  0  0  0  0  0  0  0  0  0
  1  2  1  0  0  0  0 
  1  3  1  0  0  0  0 
  1  4  1  0  0  0  0 
  2  5  1  0  0  0  0 
  2  6  1  0  0  0  0 
  7  3  1  0  0  0  0 
  5  8  1  0  0  0  0 
  6  9  1  0  0  0  0 
  6 10  2  0  0  0  0 
  8  7  1  0  0  0  0 
  9 11  2  0  0  0  0 
 12 10  1  0  0  0  0 
 11 13  1  0  0  0  0 
 13 12  2  0  0  0  0 
M  END
> <Name>
Cyclohexanol, 2-phenyl-

> <Source>
DougDB3DMolFile

> <Tox>
228

> <CAS>
1444-64-0

$$$$

  CDK

  8  7  0  0  0  0  0  0  0  0999 V2000
    0.0000    0.7126    0.0000 C   0  0  0  0  0  0  0  0  0  0  0  0
    0.9671    0.9671    0.0000 Si  0  0  0  0  0  0  0  0  0  0  0  0
    1.8832    1.2215    0.0000 Si  0  0  0  0  0  0  0  0  0  0  0  0
    0.7126    1.9341    0.0000 C   0  0  0  0  0  0  0  0  0  0  0  0
    1.2215    0.0000    0.0000 C   0  0  0  0  0  0  0  0  0  0  0  0
    1.6287    2.1886    0.0000 C   0  0  0  0  0  0  0  0  0  0  0  0
    2.1377    0.2545    0.0000 C   0  0  0  0  0  0  0  0  0  0  0  0
    2.9012    1.4760    0.0000 C   0  0  0  0  0  0  0  0  0  0  0  0
  1  2  1  0  0  0  0 
  2  3  1  0  0  0  0 
  2  4  1  0  0  0  0 
  2  5  1  0  0  0  0 
  3  6  1  0  0  0  0 
  3  7  1  0  0  0  0 
  3  8  1  0  0  0  0 
M  END
> <Name>
DISILANE, HEXAMETHYL-

> <Source>
NIST2DMolFile

> <Tox>
113.5

> <CAS>
1450-14-2

$$$$

  CDK

  8  8  0  0  0  0  0  0  0  0999 V2000
    4.3311    1.0127    2.4950 C   0  0  0  0  0  0  0  0  0  0  0  0
    5.7515    1.0906    1.9590 C   0  0  0  0  0  0  0  0  0  0  0  0
    3.4264    2.0419    1.8935 C   0  0  0  0  0  0  0  0  0  0  0  0
    6.2419    2.5272    1.9520 C   0  0  0  0  0  0  0  0  0  0  0  0
    3.9047    3.1198    1.2603 C   0  0  0  0  0  0  0  0  0  0  0  0
    1.9685    1.7548    2.0641 C   0  0  0  0  0  0  0  0  0  0  0  0
    5.3536    3.3896    1.0696 C   0  0  0  0  0  0  0  0  0  0  0  0
    1.0424    2.9252    1.8221 C   0  0  0  0  0  0  0  0  0  0  0  0
  2  1  1  0  0  0  0 
  1  3  1  0  0  0  0 
  4  2  1  0  0  0  0 
  3  5  2  0  0  0  0 
  3  6  1  0  0  0  0 
  7  4  1  0  0  0  0 
  5  7  1  0  0  0  0 
  6  8  1  0  0  0  0 
M  END
> <Name>
CYCLOHEXENE, 1-ETHYL-

> <Source>
NIST3DMolFile

> <Tox>
137

> <CAS>
1453-24-3

$$$$

  CDK

 10  9  0  0  0  0  0  0  0  0999 V2000
    4.3473    0.4997    0.0000 C   0  0  0  0  0  0  0  0  0  0  0  0
    3.4478    0.0000    0.0000 C   0  0  0  0  0  0  0  0  0  0  0  0
    5.1968    0.0000    0.0000 C   0  0  0  0  0  0  0  0  0  0  0  0
    2.5984    0.4997    0.0000 C   0  0  0  0  0  0  0  0  0  0  0  0
    6.0462    0.4997    0.0000 C   0  0  0  0  0  0  0  0  0  0  0  0
    1.7489    0.0000    0.0000 C   0  0  0  0  0  0  0  0  0  0  0  0
    6.9457    0.0000    0.0000 C   0  0  0  0  0  0  0  0  0  0  0  0
    0.8495    0.4997    0.0000 C   0  0  0  0  0  0  0  0  0  0  0  0
    7.7951    0.4997    0.0000 S   0  0  0  0  0  0  0  0  0  0  0  0
    0.0000    0.0000    0.0000 C   0  0  0  0  0  0  0  0  0  0  0  0
  1  2  1  0  0  0  0 
  1  3  1  0  0  0  0 
  2  4  1  0  0  0  0 
  3  5  1  0  0  0  0 
  4  6  1  0  0  0  0 
  5  7  1  0  0  0  0 
  6  8  1  0  0  0  0 
  7  9  1  0  0  0  0 
  8 10  1  0  0  0  0 
M  END
> <Name>
1-NONANETHIOL

> <Source>
NIST2DMolFile

> <Tox>
220

> <CAS>
1455-21-6

$$$$

  CDK

  6  7  0  0  0  0  0  0  0  0999 V2000
    0.0000    1.0080    0.0000 C   0  0  0  0  0  0  0  0  0  0  0  0
    0.8568    0.5040    0.0000 C   0  0  0  0  0  0  0  0  0  0  0  0
    0.0000    0.0000    0.0000 O   0  0  0  0  0  0  0  0  0  0  0  0
    1.8648    0.5040    0.0000 C   0  0  0  0  0  0  0  0  0  0  0  0
    2.7215    1.0080    0.0000 C   0  0  0  0  0  0  0  0  0  0  0  0
    2.7215    0.0000    0.0000 O   0  0  0  0  0  0  0  0  0  0  0  0
  1  2  1  0  0  0  0 
  3  1  1  0  0  0  0 
  2  3  1  0  0  0  0 
  2  4  1  0  0  0  0 
  4  5  1  0  0  0  0 
  6  4  1  0  0  0  0 
  5  6  1  0  0  0  0 
M  END
> <Name>
DIEPOXYBUTANE

> <Source>
NIST2DMolFile

> <Tox>
144

> <CAS>
1464-53-5

$$$$

  CDK

  7  6  0  0  0  0  0  0  0  0999 V2000
    3.2377    3.2612    2.0834 C   0  0  0  0  0  0  0  0  0  0  0  0
    1.9139    3.7804    2.0409 O   0  0  0  0  0  0  0  0  0  0  0  0
    4.1900    4.4524    2.0352 C   0  0  0  0  0  0  0  0  0  0  0  0
    0.9071    2.7978    2.1604 C   0  0  0  0  0  0  0  0  0  0  0  0
    5.6265    3.9829    1.9916 C   0  0  0  0  0  0  0  0  0  0  0  0
    0.8002    1.9008    0.9666 C   0  0  0  0  0  0  0  0  0  0  0  0
    0.3784    0.6456    1.0573 C   0  0  0  0  0  0  0  0  0  0  0  0
  1  2  1  0  0  0  0 
  1  3  1  0  0  0  0 
  2  4  1  0  0  0  0 
  3  5  1  0  0  0  0 
  4  6  1  0  0  0  0 
  6  7  2  0  0  0  0 
M  END
> <Name>
ALLYL PROPYL ETHER

> <Source>
NIST3DMolFile

> <Tox>
91

> <CAS>
1471-03-0

$$$$

  CDK

  6  5  0  0  0  0  0  0  0  0999 V2000
    0.0000    1.5354    0.0000 O   0  0  0  0  0  0  0  0  0  0  0  0
    0.8189    1.0236    0.0000 C   0  0  0  0  0  0  0  0  0  0  0  0
    1.6889    0.5118    0.0000 N   0  0  0  0  0  0  0  0  0  0  0  0
    2.5590    0.0000    0.0000 C   0  0  0  0  0  0  0  0  0  0  0  0
    3.3778    0.4606    0.0000 C   0  0  0  0  0  0  0  0  0  0  0  0
    4.3503    0.0000    0.0000 C   0  0  0  0  0  0  0  0  0  0  0  0
  1  2  2  0  0  0  0 
  2  3  2  0  0  0  0 
  3  4  1  0  0  0  0 
  4  5  1  0  0  0  0 
  5  6  2  0  0  0  0 
M  END
> <Name>
1-Propene, 3-isocyanato-

> <Source>
NIST2DMolFile

> <Tox>
88

> <CAS>
1476-23-9

$$$$

  CDK

  7  7  0  0  0  0  0  0  0  0999 V2000
    2.2339    2.3799    0.8851 C   0  0  0  0  0  0  0  0  0  0  0  0
    0.8505    2.0252    0.7247 C   0  0  0  0  0  0  0  0  0  0  0  0
    2.9682    1.2731    0.5114 C   0  0  0  0  0  0  0  0  0  0  0  0
    0.8315    0.7305    0.2661 C   0  0  0  0  0  0  0  0  0  0  0  0
    2.1097    0.2472    0.1273 O   0  0  0  0  0  0  0  0  0  0  0  0
    4.3884    1.0042    0.4533 C   0  0  0  0  0  0  0  0  0  0  0  0
    5.2989    1.9208    0.7792 C   0  0  0  0  0  0  0  0  0  0  0  0
  2  1  1  0  0  0  0 
  1  3  2  0  0  0  0 
  4  2  2  0  0  0  0 
  3  5  1  0  0  0  0 
  3  6  1  0  0  0  0 
  5  4  1  0  0  0  0 
  6  7  2  0  0  0  0 
M  END
> <Name>
2-VINYLFURAN

> <Source>
NIST3DMolFile

> <Tox>
99.5

> <CAS>
1487-18-9

$$$$

  CDK

  3  2  0  0  0  0  0  0  0  0999 V2000
    1.1219   -0.2041    0.0000 F   0  0  0  0  0  0  0  0  0  0  0  0
   -0.0524    0.4397    0.0000 C   0  0  0  0  0  0  0  0  0  0  0  0
   -1.0695   -0.2356    0.0000 O   0  0  0  0  0  0  0  0  0  0  0  0
  1  2  1  0  0  0  0 
  3  2  2  0  0  0  0 
M  END
> <Name>
FORMYL FLUORIDE

> <Source>
Chemidplus3DMolFile

> <Tox>
-26.5

> <CAS>
1493-02-3

$$$$

  CDK

 13 12  0  0  0  0  0  0  0  0999 V2000
    1.7449    1.3959    0.0000 C   0  0  0  0  0  0  0  0  0  0  0  0
    2.5924    0.8974    0.0000 C   0  0  0  0  0  0  0  0  0  0  0  0
    0.8475    0.8974    0.0000 C   0  0  0  0  0  0  0  0  0  0  0  0
    1.7449    2.3930    0.0000 O   0  0  0  0  0  0  0  0  0  0  0  0
    3.4399    1.3959    0.0000 C   0  0  0  0  0  0  0  0  0  0  0  0
    0.3490    1.7449    0.0000 F   0  0  0  0  0  0  0  0  0  0  0  0
    1.3461    0.0000    0.0000 F   0  0  0  0  0  0  0  0  0  0  0  0
    0.0000    0.3988    0.0000 F   0  0  0  0  0  0  0  0  0  0  0  0
    4.3373    0.8974    0.0000 C   0  0  0  0  0  0  0  0  0  0  0  0
    3.4399    2.3930    0.0000 O   0  0  0  0  0  0  0  0  0  0  0  0
    3.8387    0.0000    0.0000 F   0  0  0  0  0  0  0  0  0  0  0  0
    4.8358    1.7449    0.0000 F   0  0  0  0  0  0  0  0  0  0  0  0
    5.1848    0.3988    0.0000 F   0  0  0  0  0  0  0  0  0  0  0  0
  1  2  1  0  0  0  0 
  1  3  1  0  0  0  0 
  1  4  2  0  0  0  0 
  2  5  1  0  0  0  0 
  3  6  1  0  0  0  0 
  3  7  1  0  0  0  0 
  3  8  1  0  0  0  0 
  5  9  1  0  0  0  0 
  5 10  2  0  0  0  0 
  9 11  1  0  0  0  0 
  9 12  1  0  0  0  0 
  9 13  1  0  0  0  0 
M  END
> <Name>
2,4-Pentanedione, 1,1,1,5,5,5-hexafluoro-

> <Source>
NIST2DMolFile

> <Tox>
70

> <CAS>
1522-22-1

$$$$

  CDK

 12 11  0  0  0  0  0  0  0  0999 V2000
    0.0000    0.0000    0.0000 C   0  0  0  0  0  0  0  0  0  0  0  0
    1.2400    0.8400   -0.2600 C   0  0  0  0  0  0  0  0  0  0  0  0
    2.0400    1.1000    1.0000 C   0  0  0  0  0  0  0  0  0  0  0  0
    0.9200    2.1200   -1.0400 C   0  0  0  0  0  0  0  0  0  0  0  0
    3.2400    2.0000    0.7600 C   0  0  0  0  0  0  0  0  0  0  0  0
    1.2000    1.6600    2.1200 C   0  0  0  0  0  0  0  0  0  0  0  0
    4.1200    1.6600    0.0000 O   0  0  0  0  0  0  0  0  0  0  0  0
    3.2200    3.1400    1.4200 O   0  0  0  0  0  0  0  0  0  0  0  0
    0.4000    2.9000    1.8600 C   0  0  0  0  0  0  0  0  0  0  0  0
    1.1600    1.1200    3.2000 O   0  0  0  0  0  0  0  0  0  0  0  0
    4.2200    4.0400    0.9600 C   0  0  0  0  0  0  0  0  0  0  0  0
    3.8600    4.5200   -0.4400 C   0  0  0  0  0  0  0  0  0  0  0  0
  1  2  1  0  0  0  0 
  2  3  1  0  0  0  0 
  2  4  1  0  0  0  0 
  3  5  1  0  0  0  0 
  3  6  1  0  0  0  0 
  5  7  2  0  0  0  0 
  5  8  1  0  0  0  0 
  6  9  1  0  0  0  0 
  6 10  2  0  0  0  0 
 11  8  1  0  0  0  0 
 12 11  1  0  0  0  0 
M  END
> <Name>
Butanoic acid, 2-acetyl-3-methyl-, ethyl ester

> <Source>
NIH3DMolFile

> <Tox>
201

> <CAS>
1522-46-9

$$$$

  CDK

 12 11  0  0  0  0  0  0  0  0999 V2000
    1.8529    0.3392    0.2438 O   0  0  0  0  0  0  0  0  0  0  0  0
    0.9403   -0.6076   -0.1243 C   0  0  0  0  0  0  0  0  0  0  0  0
    3.1965    0.1009   -0.1870 C   0  0  0  0  0  0  0  0  0  0  0  0
    1.1779   -1.6162   -0.7764 O   0  0  0  0  0  0  0  0  0  0  0  0
   -0.4339   -0.2238    0.3961 C   0  0  0  0  0  0  0  0  0  0  0  0
    4.0778    1.2323    0.2977 C   0  0  0  0  0  0  0  0  0  0  0  0
   -0.8309    1.1498   -0.1688 C   0  0  0  0  0  0  0  0  0  0  0  0
   -1.4758   -1.2938    0.0693 C   0  0  0  0  0  0  0  0  0  0  0  0
   -2.1767    1.6366    0.3770 C   0  0  0  0  0  0  0  0  0  0  0  0
   -2.1378   -1.2788   -0.9681 O   0  0  0  0  0  0  0  0  0  0  0  0
   -1.6229   -2.4160    1.0654 C   0  0  0  0  0  0  0  0  0  0  0  0
   -2.5674    2.9775   -0.2249 C   0  0  0  0  0  0  0  0  0  0  0  0
  1  2  1  0  0  0  0 
  1  3  1  0  0  0  0 
  4  2  2  0  0  0  0 
  5  2  1  0  0  0  0 
  3  6  1  0  0  0  0 
  5  7  1  0  0  0  0 
  5  8  1  0  0  0  0 
  7  9  1  0  0  0  0 
 10  8  2  0  0  0  0 
  8 11  1  0  0  0  0 
  9 12  1  0  0  0  0 
M  END
> <Name>
Pentanoic acid, 2-acetyl-, ethyl ester

> <Source>
Chemidplus3DMolFile

> <Tox>
224

> <CAS>
1540-28-9

$$$$

  CDK

 12 12  0  0  0  0  0  0  0  0999 V2000
    3.4005    2.8144   -0.5171 O   0  0  0  0  0  0  0  0  0  0  0  0
    2.9750    1.4610   -0.6344 C   0  0  0  0  0  0  0  0  0  0  0  0
    3.8355    3.4045   -1.6739 C   0  0  0  0  0  0  0  0  0  0  0  0
    1.8340    1.3679   -1.6464 C   0  0  0  0  0  0  0  0  0  0  0  0
    2.5549    0.9347    0.7374 C   0  0  0  0  0  0  0  0  0  0  0  0
    4.3711    2.8274   -2.6101 O   0  0  0  0  0  0  0  0  0  0  0  0
    3.5500    4.8877   -1.6120 C   0  0  0  0  0  0  0  0  0  0  0  0
    1.2772   -0.0492   -1.7356 C   0  0  0  0  0  0  0  0  0  0  0  0
    1.9981   -0.4824    0.6484 C   0  0  0  0  0  0  0  0  0  0  0  0
    4.0342    5.6157   -2.8635 C   0  0  0  0  0  0  0  0  0  0  0  0
    0.8595   -0.5761   -0.3646 C   0  0  0  0  0  0  0  0  0  0  0  0
    3.7128    7.1001   -2.8044 C   0  0  0  0  0  0  0  0  0  0  0  0
  1  2  1  0  0  0  0 
  1  3  1  0  0  0  0 
  2  4  1  0  0  0  0 
  2  5  1  0  0  0  0 
  6  3  2  0  0  0  0 
  3  7  1  0  0  0  0 
  4  8  1  0  0  0  0 
  5  9  1  0  0  0  0 
  7 10  1  0  0  0  0 
  8 11  1  0  0  0  0 
  9 11  1  0  0  0  0 
 10 12  1  0  0  0  0 
M  END
> <Name>
Butanoic acid, cyclohexyl ester

> <Source>
Chemidplus3DMolFile

> <Tox>
213

> <CAS>
1551-44-6

$$$$

  CDK

  8  8  0  0  0  0  0  0  0  0999 V2000
    0.0000    0.8481    0.0000 C   0  0  0  0  0  0  0  0  0  0  0  0
    0.9978    0.8481    0.0000 C   0  0  0  0  0  0  0  0  0  0  0  0
    1.4967    1.7462    0.0000 C   0  0  0  0  0  0  0  0  0  0  0  0
    1.4967    0.0000    0.0000 N   0  0  0  0  0  0  0  0  0  0  0  0
    2.4945    1.7462    0.0000 C   0  0  0  0  0  0  0  0  0  0  0  0
    2.4945    0.0000    0.0000 C   0  0  0  0  0  0  0  0  0  0  0  0
    2.9934    2.5943    0.0000 C   0  0  0  0  0  0  0  0  0  0  0  0
    2.9934    0.8481    0.0000 N   0  0  0  0  0  0  0  0  0  0  0  0
  1  2  1  0  0  0  0 
  3  2  2  0  0  0  0 
  2  4  1  0  0  0  0 
  5  3  1  0  0  0  0 
  4  6  2  0  0  0  0 
  5  7  1  0  0  0  0 
  8  5  2  0  0  0  0 
  6  8  1  0  0  0  0 
M  END
> <Name>
4,6-DIMETHYLPYRIMIDINE

> <Source>
NIST2DMolFile

> <Tox>
159

> <CAS>
1558-17-4

$$$$

  CDK

  6  5  0  0  0  0  0  0  0  0999 V2000
    1.9954    1.0233    0.0000 C   0  0  0  0  0  0  0  0  0  0  0  0
    0.9721    1.0233    0.0000 Si  0  0  0  0  0  0  0  0  0  0  0  0
    2.5071    1.8931    0.0000 Cl  0  0  0  0  0  0  0  0  0  0  0  0
    0.9721    0.0000    0.0000 Cl  0  0  0  0  0  0  0  0  0  0  0  0
    0.9721    1.9954    0.0000 Cl  0  0  0  0  0  0  0  0  0  0  0  0
    0.0000    1.0233    0.0000 Cl  0  0  0  0  0  0  0  0  0  0  0  0
  1  2  1  0  0  0  0 
  1  3  1  0  0  0  0 
  2  4  1  0  0  0  0 
  2  5  1  0  0  0  0 
  2  6  1  0  0  0  0 
M  END
> <Name>
Silane, trichloro(chloromethyl)-

> <Source>
NIST2DMolFile

> <Tox>
118

> <CAS>
1558-25-4

$$$$

  CDK

 11 12  0  0  0  0  0  0  0  0999 V2000
    5.0790    3.2795    2.1055 C   0  0  0  0  0  0  0  0  0  0  0  0
    5.8967    3.0164    0.8468 C   0  0  0  0  0  0  0  0  0  0  0  0
    3.6490    2.8684    1.8874 C   0  0  0  0  0  0  0  0  0  0  0  0
    5.1983    4.7387    2.5432 C   0  0  0  0  0  0  0  0  0  0  0  0
    2.6171    3.8021    1.7494 C   0  0  0  0  0  0  0  0  0  0  0  0
    3.3520    1.5032    1.8179 C   0  0  0  0  0  0  0  0  0  0  0  0
    4.3193    5.6476    1.7046 C   0  0  0  0  0  0  0  0  0  0  0  0
    2.8576    5.2716    1.8673 C   0  0  0  0  0  0  0  0  0  0  0  0
    1.3094    3.3574    1.5291 C   0  0  0  0  0  0  0  0  0  0  0  0
    2.0512    1.0709    1.6029 C   0  0  0  0  0  0  0  0  0  0  0  0
    1.0269    2.0013    1.4546 C   0  0  0  0  0  0  0  0  0  0  0  0
  1  2  1  0  0  0  0 
  1  3  1  0  0  0  0 
  4  1  1  0  0  0  0 
  5  3  2  0  0  0  0 
  3  6  1  0  0  0  0 
  7  4  1  0  0  0  0 
  5  8  1  0  0  0  0 
  9  5  1  0  0  0  0 
  6 10  2  0  0  0  0 
  8  7  1  0  0  0  0 
 11  9  2  0  0  0  0 
 10 11  1  0  0  0  0 
M  END
> <Name>
NAPHTHALENE, 1,2,3,4-TETRAHYDRO-1-METHYL-

> <Source>
NIST3DMolFile

> <Tox>
220.6

> <CAS>
1559-81-5

$$$$

  CDK

 10 10  0  0  0  0  0  0  0  0999 V2000
    2.9809    1.0708    1.9500 C   0  0  0  0  0  0  0  0  0  0  0  0
    3.7865    1.7072    0.8700 C   0  0  0  0  0  0  0  0  0  0  0  0
    1.7585    1.4884    2.2815 C   0  0  0  0  0  0  0  0  0  0  0  0
    5.1768    1.9948    1.3424 C   0  0  0  0  0  0  0  0  0  0  0  0
    0.9467    0.8474    3.3393 C   0  0  0  0  0  0  0  0  0  0  0  0
    6.1583    1.0038    1.2849 C   0  0  0  0  0  0  0  0  0  0  0  0
    5.5018    3.2546    1.8468 C   0  0  0  0  0  0  0  0  0  0  0  0
    7.4504    1.2740    1.7201 C   0  0  0  0  0  0  0  0  0  0  0  0
    6.7955    3.5192    2.2828 C   0  0  0  0  0  0  0  0  0  0  0  0
    7.7721    2.5325    2.2182 C   0  0  0  0  0  0  0  0  0  0  0  0
  1  2  1  0  0  0  0 
  1  3  2  0  0  0  0 
  2  4  1  0  0  0  0 
  3  5  1  0  0  0  0 
  6  4  2  0  0  0  0 
  4  7  1  0  0  0  0 
  8  6  1  0  0  0  0 
  7  9  2  0  0  0  0 
 10  8  2  0  0  0  0 
  9 10  1  0  0  0  0 
M  END
> <Name>
BENZENE, 2-BUTENYL-

> <Source>
NIST3DMolFile

> <Tox>
176

> <CAS>
1560-06-1

$$$$

  CDK

  5  4  0  0  0  0  0  0  0  0999 V2000
    3.3816    1.2174    0.8971 C   0  0  0  0  0  0  0  0  0  0  0  0
    2.0416    0.9412    0.5441 C   0  0  0  0  0  0  0  0  0  0  0  0
    4.5190    1.4329    1.1859 C   0  0  0  0  0  0  0  0  0  0  0  0
    1.0113    1.7437    0.8359 C   0  0  0  0  0  0  0  0  0  0  0  0
    1.1180    3.0262    1.5618 C   0  0  0  0  0  0  0  0  0  0  0  0
  1  2  1  0  0  0  0 
  1  3  3  0  0  0  0 
  2  4  2  0  0  0  0 
  4  5  1  0  0  0  0 
M  END
> <Name>
3-PENTEN-1-YNE, (Z)-

> <Source>
NIST3DMolFile

> <Tox>
44.6

> <CAS>
1574-40-9

$$$$

  CDK

  5  4  0  0  0  0  0  0  0  0999 V2000
    2.8874    0.6005    1.8451 C   0  0  0  0  0  0  0  0  0  0  0  0
    1.4968    1.0387    1.8186 C   0  0  0  0  0  0  0  0  0  0  0  0
    3.7675    0.8611    0.8839 C   0  0  0  0  0  0  0  0  0  0  0  0
    1.0772    2.3055    1.7820 C   0  0  0  0  0  0  0  0  0  0  0  0
    1.9516    3.4968    1.7505 C   0  0  0  0  0  0  0  0  0  0  0  0
  1  2  1  0  0  0  0 
  1  3  2  0  0  0  0 
  2  4  2  0  0  0  0 
  4  5  1  0  0  0  0 
M  END
> <Name>
1,3-PENTADIENE (Z)

> <Source>
NIST3DMolFile

> <Tox>
44.1

> <CAS>
1574-41-0

$$$$

  CDK

  9  9  0  0  0  0  0  0  0  0999 V2000
    4.6417   -1.1529    0.0000 C   0  0  0  0  0  0  0  0  0  0  0  0
    3.9905   -2.3059    0.0000 C   0  0  0  0  0  0  0  0  0  0  0  0
    3.9905   -0.0000    0.0000 C   0  0  0  0  0  0  0  0  0  0  0  0
    5.9738   -1.1529    0.0000 Br  0  0  0  0  0  0  0  0  0  0  0  0
    2.6583   -2.3059    0.0000 C   0  0  0  0  0  0  0  0  0  0  0  0
    2.6583   -0.0000    0.0000 C   0  0  0  0  0  0  0  0  0  0  0  0
    1.9833   -1.1529    0.0000 C   0  0  0  0  0  0  0  0  0  0  0  0
    0.6571   -1.1529    0.0000 C   0  0  0  0  0  0  0  0  0  0  0  0
    0.0000   -2.3059    0.0000 C   0  0  0  0  0  0  0  0  0  0  0  0
  1  2  2  0  0  0  0 
  1  3  1  0  0  0  0 
  1  4  1  0  0  0  0 
  2  5  1  0  0  0  0 
  6  3  2  0  0  0  0 
  5  7  2  0  0  0  0 
  7  6  1  0  0  0  0 
  7  8  1  0  0  0  0 
  8  9  1  0  0  0  0 
M  END
> <Name>
1-BROMO-4-ETHYLBENZENE

> <Source>
DSSTox2DMolFile

> <Tox>
204

> <CAS>
1585-07-5

$$$$

  CDK

  9  8  0  0  0  0  0  0  0  0999 V2000
   -0.0678   -1.5166    1.3998 Cl  0  0  0  0  0  0  0  0  0  0  0  0
   -0.0364   -0.5053   -0.0273 C   0  0  0  0  0  0  0  0  0  0  0  0
   -0.1334   -1.3616   -1.5497 Cl  0  0  0  0  0  0  0  0  0  0  0  0
    1.2566    0.2734   -0.0919 N   0  0  0  0  0  0  0  0  0  0  0  0
   -1.2113    0.4320    0.1248 N   0  0  0  0  0  0  0  0  0  0  0  0
    1.3862    1.0929   -1.0142 O   0  0  0  0  0  0  0  0  0  0  0  0
    2.1372    0.0185    0.7423 O   0  0  0  0  0  0  0  0  0  0  0  0
   -1.0171    1.5020    0.7222 O   0  0  0  0  0  0  0  0  0  0  0  0
   -2.3140    0.0648   -0.3060 O   0  0  0  0  0  0  0  0  0  0  0  0
  1  2  1  0  0  0  0 
  3  2  1  0  0  0  0 
  4  2  1  0  0  0  0 
  5  2  1  0  0  0  0 
  6  4  1  0  0  0  0 
  7  4  2  0  0  0  0 
  8  5  1  0  0  0  0 
  9  5  2  0  0  0  0 
M  CHG  1   4   1
M  CHG  1   5   1
M  CHG  1   6  -1
M  CHG  1   8  -1
M  END
> <Name>
Dichlorodintromethane

> <Source>
Chemidplus3DMolFile

> <Tox>
121.5

> <CAS>
1587-41-3

$$$$

  CDK

  7  6  0  0  0  0  0  0  0  0999 V2000
    1.1718    0.7097   -0.5919 C   0  0  0  0  0  0  0  0  0  0  0  0
    0.5287   -0.5476   -0.0701 C   0  0  0  0  0  0  0  0  0  0  0  0
    2.1376    1.2414    0.2777 O   0  0  0  0  0  0  0  0  0  0  0  0
   -0.7508   -0.6054    0.3203 C   0  0  0  0  0  0  0  0  0  0  0  0
    1.4057   -1.7467   -0.0260 C   0  0  0  0  0  0  0  0  0  0  0  0
   -1.6941    0.5444    0.3174 C   0  0  0  0  0  0  0  0  0  0  0  0
   -3.0377    0.1553   -0.2595 C   0  0  0  0  0  0  0  0  0  0  0  0
  1  2  1  0  0  0  0 
  1  3  1  0  0  0  0 
  2  4  2  0  0  0  0 
  2  5  1  0  0  0  0 
  4  6  1  0  0  0  0 
  6  7  1  0  0  0  0 
M  END
> <Name>
2-PENTEN-1-OL, 2-METHYL-

> <Source>
DougDB3DMolFile

> <Tox>
167.5

> <CAS>
1610-29-3

$$$$

  CDK

  7  6  0  0  0  0  0  0  0  0999 V2000
    1.7073    1.5065    0.0000 C   0  0  0  0  0  0  0  0  0  0  0  0
    0.8537    1.0043    0.0000 C   0  0  0  0  0  0  0  0  0  0  0  0
    2.6112    1.0043    0.0000 S   0  0  0  0  0  0  0  0  0  0  0  0
    0.8537    0.0000    0.0000 C   0  0  0  0  0  0  0  0  0  0  0  0
    0.0000    1.5065    0.0000 C   0  0  0  0  0  0  0  0  0  0  0  0
    3.4649    1.5065    0.0000 C   0  0  0  0  0  0  0  0  0  0  0  0
    4.3186    1.0043    0.0000 C   0  0  0  0  0  0  0  0  0  0  0  0
  1  2  1  0  0  0  0 
  1  3  1  0  0  0  0 
  2  4  1  0  0  0  0 
  2  5  1  0  0  0  0 
  3  6  1  0  0  0  0 
  6  7  1  0  0  0  0 
M  END
> <Name>
PROPANE, 1-(ETHYLTHIO)-2-METHYL-

> <Source>
NIST2DMolFile

> <Tox>
134.2

> <CAS>
1613-45-2

$$$$

  CDK

  6  5  0  0  0  0  0  0  0  0999 V2000
    0.0000    0.0000    0.0000 C   0  0  0  0  0  0  0  0  0  0  0  0
   -1.4400    0.1000   -0.0600 C   0  0  0  0  0  0  0  0  0  0  0  0
    1.1600   -0.1000    0.0400 N   0  0  0  0  0  0  0  0  0  0  0  0
   -2.2000   -1.0000   -0.2000 C   0  0  0  0  0  0  0  0  0  0  0  0
   -1.5800   -2.3200   -0.3000 C   0  0  0  0  0  0  0  0  0  0  0  0
   -1.3600   -3.0400    0.8200 C   0  0  0  0  0  0  0  0  0  0  0  0
  1  2  1  0  0  0  0 
  1  3  3  0  0  0  0 
  2  4  2  0  0  0  0 
  4  5  1  0  0  0  0 
  5  6  2  0  0  0  0 
M  END
> <Name>
2,4-Pentadienenitrile

> <Source>
NIH3DMolFile

> <Tox>
136.5

> <CAS>
1615-70-9

$$$$

  CDK

  4  3  0  0  0  0  0  0  0  0999 V2000
    0.8915    1.2680    1.8476 C   0  0  0  0  0  0  0  0  0  0  0  0
    2.1256    1.4937    0.9947 C   0  0  0  0  0  0  0  0  0  0  0  0
    2.3919    0.0000    0.0000 Cl  0  0  0  0  0  0  0  0  0  0  0  0
    1.9918    2.5534    0.1596 F   0  0  0  0  0  0  0  0  0  0  0  0
  1  2  1  0  0  0  0 
  2  3  1  0  0  0  0 
  2  4  1  0  0  0  0 
M  END
> <Name>
ETHANE, 1-CHLORO-1-FLUORO-

> <Source>
NIST3DMolFile

> <Tox>
16.2

> <CAS>
1615-75-4

$$$$

  CDK

  5  4  0  0  0  0  0  0  0  0999 V2000
    2.5988    1.9991    0.0000 N   0  0  0  0  0  0  0  0  0  0  0  0
    1.6992    1.4993    0.0000 C   0  0  0  0  0  0  0  0  0  0  0  0
    0.8496    0.9995    0.0000 C   0  0  0  0  0  0  0  0  0  0  0  0
    0.8496    0.0000    0.0000 Cl  0  0  0  0  0  0  0  0  0  0  0  0
    0.0000    1.4993    0.0000 C   0  0  0  0  0  0  0  0  0  0  0  0
  1  2  3  0  0  0  0 
  2  3  1  0  0  0  0 
  3  4  1  0  0  0  0 
  3  5  1  0  0  0  0 
M  END
> <Name>
PROPANENITRILE, 2-CHLORO-

> <Source>
NIST2DMolFile

> <Tox>
121

> <CAS>
1617-17-0

$$$$

  CDK

  7  6  0  0  0  0  0  0  0  0999 V2000
    2.0408    1.0204    0.0000 C   0  0  0  0  0  0  0  0  0  0  0  0
    1.0714    1.0204    0.0000 S   0  0  0  0  0  0  0  0  0  0  0  0
    2.6020    1.7857    0.0000 C   0  0  0  0  0  0  0  0  0  0  0  0
    1.0714    0.0000    0.0000 Cl  0  0  0  0  0  0  0  0  0  0  0  0
    1.0714    1.9898    0.0000 O   0  0  0  0  0  0  0  0  0  0  0  0
    0.0000    1.0204    0.0000 O   0  0  0  0  0  0  0  0  0  0  0  0
    3.6224    1.7857    0.0000 Cl  0  0  0  0  0  0  0  0  0  0  0  0
  1  2  1  0  0  0  0 
  1  3  1  0  0  0  0 
  2  4  1  0  0  0  0 
  2  5  2  0  0  0  0 
  2  6  2  0  0  0  0 
  3  7  1  0  0  0  0 
M  END
> <Name>
Ethanesulfonyl chloride, 2-chloro-

> <Source>
NIST2DMolFile

> <Tox>
201.5

> <CAS>
1622-32-8

$$$$

  CDK

 11 11  0  0  0  0  0  0  0  0999 V2000
    5.5773    3.8864    2.0104 C   0  0  0  0  0  0  0  0  0  0  0  0
    4.4541    3.9023    0.9810 C   0  0  0  0  0  0  0  0  0  0  0  0
    6.3309    2.5659    2.0171 C   0  0  0  0  0  0  0  0  0  0  0  0
    3.2848    3.0766    1.4128 C   0  0  0  0  0  0  0  0  0  0  0  0
    7.3934    2.5387    3.0919 C   0  0  0  0  0  0  0  0  0  0  0  0
    2.3573    3.6004    2.3186 C   0  0  0  0  0  0  0  0  0  0  0  0
    3.1104    1.7841    0.9194 C   0  0  0  0  0  0  0  0  0  0  0  0
    1.2649    2.8494    2.7259 C   0  0  0  0  0  0  0  0  0  0  0  0
    2.0230    1.0140    1.3148 C   0  0  0  0  0  0  0  0  0  0  0  0
    1.1001    1.5523    2.2197 C   0  0  0  0  0  0  0  0  0  0  0  0
    0.0000    0.8677    2.6612 O   0  0  0  0  0  0  0  0  0  0  0  0
  1  2  1  0  0  0  0 
  1  3  1  0  0  0  0 
  2  4  1  0  0  0  0 
  3  5  1  0  0  0  0 
  6  4  2  0  0  0  0 
  4  7  1  0  0  0  0 
  8  6  1  0  0  0  0 
  7  9  2  0  0  0  0 
 10  8  2  0  0  0  0 
  9 10  1  0  0  0  0 
 10 11  1  0  0  0  0 
M  END
> <Name>
P-BUTYLPHENOL

> <Source>
NIST3DMolFile

> <Tox>
248

> <CAS>
1638-22-8

$$$$

  CDK

  8  7  0  0  0  0  0  0  0  0999 V2000
    0.0000    0.0000    0.0000 C   0  0  0  0  0  0  0  0  0  0  0  0
    0.8723    0.4618    0.0000 C   0  0  0  0  0  0  0  0  0  0  0  0
    1.7445    0.0000    0.0000 C   0  0  0  0  0  0  0  0  0  0  0  0
    2.6681    0.4618    0.0000 C   0  0  0  0  0  0  0  0  0  0  0  0
    3.5404    0.0000    0.0000 C   0  0  0  0  0  0  0  0  0  0  0  0
    4.4640    0.4618    0.0000 C   0  0  0  0  0  0  0  0  0  0  0  0
    5.3362    0.0000    0.0000 C   0  0  0  0  0  0  0  0  0  0  0  0
    6.2085    0.4618    0.0000 S   0  0  0  0  0  0  0  0  0  0  0  0
  1  2  1  0  0  0  0 
  2  3  1  0  0  0  0 
  3  4  1  0  0  0  0 
  4  5  1  0  0  0  0 
  5  6  1  0  0  0  0 
  6  7  1  0  0  0  0 
  7  8  1  0  0  0  0 
M  END
> <Name>
1-HEPTANETHIOL

> <Source>
NIST2DMolFile

> <Tox>
177

> <CAS>
1639-09-4

$$$$

  CDK

 17 18  0  0  0  0  0  0  0  0999 V2000
    3.0060    2.6052    0.0000 O   0  0  0  0  0  0  0  0  0  0  0  0
    4.0080    2.6052    0.0000 C   0  0  0  0  0  0  0  0  0  0  0  0
    2.5050    1.7535    0.0000 C   0  0  0  0  0  0  0  0  0  0  0  0
    4.5090    3.4569    0.0000 C   0  0  0  0  0  0  0  0  0  0  0  0
    4.5090    1.7535    0.0000 C   0  0  0  0  0  0  0  0  0  0  0  0
    1.5030    1.7535    0.0000 C   0  0  0  0  0  0  0  0  0  0  0  0
    3.0060    0.8517    0.0000 C   0  0  0  0  0  0  0  0  0  0  0  0
    4.0080    4.3587    0.0000 O   0  0  0  0  0  0  0  0  0  0  0  0
    5.5110    3.4569    0.0000 C   0  0  0  0  0  0  0  0  0  0  0  0
    5.5110    1.7535    0.0000 C   0  0  0  0  0  0  0  0  0  0  0  0
    1.0020    2.6052    0.0000 O   0  0  0  0  0  0  0  0  0  0  0  0
    1.0020    0.8517    0.0000 C   0  0  0  0  0  0  0  0  0  0  0  0
    2.5050    0.0000    0.0000 C   0  0  0  0  0  0  0  0  0  0  0  0
    4.5090    5.2104    0.0000 C   0  0  0  0  0  0  0  0  0  0  0  0
    6.0120    2.6052    0.0000 C   0  0  0  0  0  0  0  0  0  0  0  0
    0.0000    2.6052    0.0000 C   0  0  0  0  0  0  0  0  0  0  0  0
    1.5030    0.0000    0.0000 C   0  0  0  0  0  0  0  0  0  0  0  0
  1  2  1  0  0  0  0 
  1  3  1  0  0  0  0 
  4  2  2  0  0  0  0 
  2  5  1  0  0  0  0 
  3  6  2  0  0  0  0 
  7  3  1  0  0  0  0 
  4  8  1  0  0  0  0 
  9  4  1  0  0  0  0 
  5 10  2  0  0  0  0 
  6 11  1  0  0  0  0 
  6 12  1  0  0  0  0 
 13  7  2  0  0  0  0 
  8 14  1  0  0  0  0 
 15  9  2  0  0  0  0 
 10 15  1  0  0  0  0 
 11 16  1  0  0  0  0 
 12 17  2  0  0  0  0 
 17 13  1  0  0  0  0 
M  END
> <Name>
BENZENE, 1,1'-OXYBIS[2-METHOXY-

> <Source>
NIST2DMolFile

> <Tox>
330.5

> <CAS>
1655-70-5

$$$$

  CDK

 10 10  0  0  0  0  0  0  0  0999 V2000
    6.8529    2.3155    0.8231 C   0  0  0  0  0  0  0  0  0  0  0  0
    6.4164    1.5438    2.0597 C   0  0  0  0  0  0  0  0  0  0  0  0
    7.3353    1.8823    3.2240 C   0  0  0  0  0  0  0  0  0  0  0  0
    4.9501    1.8547    2.4071 C   0  0  0  0  0  0  0  0  0  0  0  0
    4.0162    1.4977    1.2494 C   0  0  0  0  0  0  0  0  0  0  0  0
    4.4979    1.0918    3.6535 C   0  0  0  0  0  0  0  0  0  0  0  0
    2.5795    1.8602    1.5854 C   0  0  0  0  0  0  0  0  0  0  0  0
    3.0660    1.4517    4.0126 C   0  0  0  0  0  0  0  0  0  0  0  0
    2.1165    1.1437    2.8542 C   0  0  0  0  0  0  0  0  0  0  0  0
    0.6952    1.5457    3.2065 C   0  0  0  0  0  0  0  0  0  0  0  0
  1  2  1  0  0  0  0 
  2  3  1  0  0  0  0 
  2  4  1  0  0  0  0 
  4  5  1  0  0  0  0 
  4  6  1  0  0  0  0 
  7  5  1  0  0  0  0 
  6  8  1  0  0  0  0 
  9  7  1  0  0  0  0 
  9  8  1  0  0  0  0 
  9 10  1  0  0  0  0 
M  END
> <Name>
Cyclohexane, 1-methyl-4-(1-methylethyl)-, trans-

> <Source>
NIST3DMolFile

> <Tox>
170.6

> <CAS>
1678-82-6

$$$$

  CDK

  8  8  0  0  0  0  0  0  0  0999 V2000
    0.4516    4.6732    1.9214 C   0  0  0  0  0  0  0  0  0  0  0  0
    1.9597    4.6988    1.7991 C   0  0  0  0  0  0  0  0  0  0  0  0
    2.5612    3.3207    2.0720 C   0  0  0  0  0  0  0  0  0  0  0  0
    4.0864    3.3878    2.1238 C   0  0  0  0  0  0  0  0  0  0  0  0
    2.1229    2.3217    1.0004 C   0  0  0  0  0  0  0  0  0  0  0  0
    4.6771    2.0117    2.3918 C   0  0  0  0  0  0  0  0  0  0  0  0
    2.6993    0.9438    1.2772 C   0  0  0  0  0  0  0  0  0  0  0  0
    4.2178    1.0013    1.3517 C   0  0  0  0  0  0  0  0  0  0  0  0
  1  2  1  0  0  0  0 
  2  3  1  0  0  0  0 
  3  4  1  0  0  0  0 
  5  3  1  0  0  0  0 
  4  6  1  0  0  0  0 
  7  5  1  0  0  0  0 
  6  8  1  0  0  0  0 
  8  7  1  0  0  0  0 
M  END
> <Name>
ETHYLCYCLOHEXANE

> <Source>
NIST3DMolFile

> <Tox>
131.9

> <CAS>
1678-91-7

$$$$

  CDK

 10 10  0  0  0  0  0  0  0  0999 V2000
    2.3584    1.7244    3.2414 C   0  0  0  0  0  0  0  0  0  0  0  0
    3.4364    0.8941    2.5584 C   0  0  0  0  0  0  0  0  0  0  0  0
    1.8759    2.8852    2.3828 C   0  0  0  0  0  0  0  0  0  0  0  0
    4.7145    1.6935    2.2985 C   0  0  0  0  0  0  0  0  0  0  0  0
    0.8972    2.4537    1.3143 C   0  0  0  0  0  0  0  0  0  0  0  0
    5.4735    1.9810    3.5983 C   0  0  0  0  0  0  0  0  0  0  0  0
    5.6142    0.9619    1.3067 C   0  0  0  0  0  0  0  0  0  0  0  0
    6.9698    2.1646    3.3773 C   0  0  0  0  0  0  0  0  0  0  0  0
    6.8036    1.8202    0.8939 C   0  0  0  0  0  0  0  0  0  0  0  0
    7.2672    2.7496    2.0088 C   0  0  0  0  0  0  0  0  0  0  0  0
  1  2  1  0  0  0  0 
  1  3  1  0  0  0  0 
  2  4  1  0  0  0  0 
  3  5  1  0  0  0  0 
  4  6  1  0  0  0  0 
  7  4  1  0  0  0  0 
  6  8  1  0  0  0  0 
  9  7  1  0  0  0  0 
 10  8  1  0  0  0  0 
 10  9  1  0  0  0  0 
M  END
> <Name>
BUTYLCYCLOHEXANE

> <Source>
NIST3DMolFile

> <Tox>
180.9

> <CAS>
1678-93-9

$$$$

  CDK

  9  9  0  0  0  0  0  0  0  0999 V2000
    3.3220    0.9367    2.9238 C   0  0  0  0  0  0  0  0  0  0  0  0
    3.0429    1.8317    1.7248 C   0  0  0  0  0  0  0  0  0  0  0  0
    4.3227    2.3572    1.0460 C   0  0  0  0  0  0  0  0  0  0  0  0
    2.1250    2.9969    2.1613 C   0  0  0  0  0  0  0  0  0  0  0  0
    5.4172    1.3093    0.9455 C   0  0  0  0  0  0  0  0  0  0  0  0
    4.8361    3.6085    1.7525 C   0  0  0  0  0  0  0  0  0  0  0  0
    0.6622    2.6155    2.0000 C   0  0  0  0  0  0  0  0  0  0  0  0
    2.4222    4.2769    1.3860 C   0  0  0  0  0  0  0  0  0  0  0  0
    3.8449    4.7595    1.6311 C   0  0  0  0  0  0  0  0  0  0  0  0
  1  2  1  0  0  0  0 
  3  2  1  0  0  0  0 
  2  4  1  0  0  0  0 
  3  5  1  0  0  0  0 
  6  3  1  0  0  0  0 
  4  7  1  0  0  0  0 
  4  8  1  0  0  0  0 
  9  6  1  0  0  0  0 
  8  9  1  0  0  0  0 
M  END
> <Name>
CYCLOHEXANE, 1,2,3-TRIMETHYL-

> <Source>
NIST3DMolFile

> <Tox>
142

> <CAS>
1678-97-3

$$$$

  CDK

  7  6  0  0  0  0  0  0  0  0999 V2000
    1.7073    1.5065    0.0000 C   0  0  0  0  0  0  0  0  0  0  0  0
    0.8537    1.0043    0.0000 C   0  0  0  0  0  0  0  0  0  0  0  0
    2.6112    1.0043    0.0000 C   0  0  0  0  0  0  0  0  0  0  0  0
    0.8537    0.0000    0.0000 C   0  0  0  0  0  0  0  0  0  0  0  0
    0.0000    1.5065    0.0000 S   0  0  0  0  0  0  0  0  0  0  0  0
    3.4649    1.5065    0.0000 C   0  0  0  0  0  0  0  0  0  0  0  0
    4.3186    1.0043    0.0000 C   0  0  0  0  0  0  0  0  0  0  0  0
  1  2  1  0  0  0  0 
  1  3  1  0  0  0  0 
  2  4  1  0  0  0  0 
  2  5  1  0  0  0  0 
  3  6  1  0  0  0  0 
  6  7  1  0  0  0  0 
M  END
> <Name>
2-HEXANETHIOL

> <Source>
NIST2DMolFile

> <Tox>
142

> <CAS>
1679-06-7

$$$$

  CDK

 11 12  0  0  0  0  0  0  0  0999 V2000
    0.0000    0.0000    0.0000 C   0  0  0  0  0  0  0  0  0  0  0  0
   -1.2400   -0.8000   -0.1800 C   0  0  0  0  0  0  0  0  0  0  0  0
   -2.4800   -0.1400   -0.2800 C   0  0  0  0  0  0  0  0  0  0  0  0
   -1.1600   -2.2000   -0.2400 C   0  0  0  0  0  0  0  0  0  0  0  0
   -3.6400   -0.9000   -0.4400 C   0  0  0  0  0  0  0  0  0  0  0  0
   -2.3200   -2.9600   -0.4000 C   0  0  0  0  0  0  0  0  0  0  0  0
   -3.5800   -2.3200   -0.5000 C   0  0  0  0  0  0  0  0  0  0  0  0
   -4.9400   -0.1800   -0.5600 C   0  0  0  0  0  0  0  0  0  0  0  0
   -4.8000   -3.1600   -0.6600 C   0  0  0  0  0  0  0  0  0  0  0  0
   -6.1800   -1.0800   -0.3600 C   0  0  0  0  0  0  0  0  0  0  0  0
   -6.0200   -2.3800   -1.1400 C   0  0  0  0  0  0  0  0  0  0  0  0
  1  2  1  0  0  0  0 
  2  3  2  0  0  0  0 
  2  4  1  0  0  0  0 
  3  5  1  0  0  0  0 
  6  4  2  0  0  0  0 
  5  7  2  0  0  0  0 
  5  8  1  0  0  0  0 
  7  6  1  0  0  0  0 
  7  9  1  0  0  0  0 
  8 10  1  0  0  0  0 
  9 11  1  0  0  0  0 
 10 11  1  0  0  0  0 
M  END
> <Name>
NAPHTHALENE, 1,2,3,4-TETRAHYDRO-6-METHYL-

> <Source>
NIH3DMolFile

> <Tox>
229

> <CAS>
1680-51-9

$$$$

  CDK

 15 16  0  0  0  0  0  0  0  0999 V2000
    0.0000    0.0000    0.0000 C   0  0  0  0  0  0  0  0  0  0  0  0
    1.2400    0.7200    0.0200 O   0  0  0  0  0  0  0  0  0  0  0  0
    1.8800    0.8000    1.1800 C   0  0  0  0  0  0  0  0  0  0  0  0
    1.2000    0.5600    2.3800 C   0  0  0  0  0  0  0  0  0  0  0  0
    3.2400    1.1000    1.2000 C   0  0  0  0  0  0  0  0  0  0  0  0
   -0.0800    0.2600    2.3800 O   0  0  0  0  0  0  0  0  0  0  0  0
    1.8800    0.6400    3.6000 C   0  0  0  0  0  0  0  0  0  0  0  0
    3.9400    1.1800    2.4200 C   0  0  0  0  0  0  0  0  0  0  0  0
   -0.5200   -0.6600    3.2200 C   0  0  0  0  0  0  0  0  0  0  0  0
    3.2600    0.9400    3.6200 C   0  0  0  0  0  0  0  0  0  0  0  0
    0.3400   -1.6800    3.6400 C   0  0  0  0  0  0  0  0  0  0  0  0
   -1.8200   -0.6000    3.7200 C   0  0  0  0  0  0  0  0  0  0  0  0
   -0.1200   -2.6600    4.5400 C   0  0  0  0  0  0  0  0  0  0  0  0
   -2.2800   -1.5800    4.6200 C   0  0  0  0  0  0  0  0  0  0  0  0
   -1.4200   -2.6000    5.0400 C   0  0  0  0  0  0  0  0  0  0  0  0
  1  2  1  0  0  0  0 
  2  3  1  0  0  0  0 
  3  4  2  0  0  0  0 
  3  5  1  0  0  0  0 
  4  6  1  0  0  0  0 
  4  7  1  0  0  0  0 
  8  5  2  0  0  0  0 
  6  9  1  0  0  0  0 
  7 10  2  0  0  0  0 
 10  8  1  0  0  0  0 
  9 11  2  0  0  0  0 
  9 12  1  0  0  0  0 
 11 13  1  0  0  0  0 
 14 12  2  0  0  0  0 
 13 15  2  0  0  0  0 
 15 14  1  0  0  0  0 
M  END
> <Name>
O-PHENOXYANISOLE

> <Source>
NIH3DMolFile

> <Tox>
288

> <CAS>
1695-04-1

$$$$

  CDK

  5  5  0  0  0  0  0  0  0  0999 V2000
    1.0336    1.9811    0.9614 C   0  0  0  0  0  0  0  0  0  0  0  0
    2.1023    2.7823    1.0324 C   0  0  0  0  0  0  0  0  0  0  0  0
    1.2978    0.5171    0.9182 C   0  0  0  0  0  0  0  0  0  0  0  0
    3.4340    2.1181    1.0600 C   0  0  0  0  0  0  0  0  0  0  0  0
    3.1165    0.3169    0.9787 S   0  0  0  0  0  0  0  0  0  0  0  0
  1  2  2  0  0  0  0 
  3  1  1  0  0  0  0 
  2  4  1  0  0  0  0 
  5  3  1  0  0  0  0 
  4  5  1  0  0  0  0 
M  END
> <Name>
THIOPHENE, 2,5-DIHYDRO-

> <Source>
NIST3DMolFile

> <Tox>
122.4

> <CAS>
1708-32-3

$$$$

  CDK

 11 12  0  0  0  0  0  0  0  0999 V2000
    0.0000    2.5050    0.0000 C   0  0  0  0  0  0  0  0  0  0  0  0
    0.0000    1.5030    0.0000 C   0  0  0  0  0  0  0  0  0  0  0  0
    0.8517    3.0060    0.0000 C   0  0  0  0  0  0  0  0  0  0  0  0
    0.8517    1.0020    0.0000 C   0  0  0  0  0  0  0  0  0  0  0  0
    1.7535    2.5050    0.0000 C   0  0  0  0  0  0  0  0  0  0  0  0
    1.7535    1.5030    0.0000 C   0  0  0  0  0  0  0  0  0  0  0  0
    2.6052    3.0060    0.0000 C   0  0  0  0  0  0  0  0  0  0  0  0
    2.6052    1.0020    0.0000 C   0  0  0  0  0  0  0  0  0  0  0  0
    3.4569    2.5050    0.0000 C   0  0  0  0  0  0  0  0  0  0  0  0
    3.4569    1.5030    0.0000 N   0  0  0  0  0  0  0  0  0  0  0  0
    2.6052    0.0000    0.0000 C   0  0  0  0  0  0  0  0  0  0  0  0
  2  1  2  0  0  0  0 
  1  3  1  0  0  0  0 
  4  2  1  0  0  0  0 
  3  5  2  0  0  0  0 
  6  4  2  0  0  0  0 
  6  5  1  0  0  0  0 
  5  7  1  0  0  0  0 
  8  6  1  0  0  0  0 
  7  9  2  0  0  0  0 
 10  8  2  0  0  0  0 
  8 11  1  0  0  0  0 
  9 10  1  0  0  0  0 
M  END
> <Name>
ISOQUINOLINE, 1-METHYL-

> <Source>
NIST2DMolFile

> <Tox>
248

> <CAS>
1721-93-3

$$$$

  CDK

 14 15  0  0  0  0  0  0  0  0999 V2000
    0.0000    0.0000    0.0000 C   0  0  0  0  0  0  0  0  0  0  0  0
   -0.6000   -1.1400    0.8200 C   0  0  0  0  0  0  0  0  0  0  0  0
    0.5000   -0.5000   -1.2800 N   0  0  0  0  0  0  0  0  0  0  0  0
   -0.8200   -0.7000    2.2000 N   0  0  0  0  0  0  0  0  0  0  0  0
   -0.2800    0.0200   -2.4200 C   0  0  0  0  0  0  0  0  0  0  0  0
    1.9200   -0.2400   -1.4400 C   0  0  0  0  0  0  0  0  0  0  0  0
    0.4400   -0.7000    2.9600 C   0  0  0  0  0  0  0  0  0  0  0  0
   -1.5000    0.6000    2.2600 C   0  0  0  0  0  0  0  0  0  0  0  0
    0.2800   -0.5200   -3.7600 C   0  0  0  0  0  0  0  0  0  0  0  0
    2.4400   -0.7800   -2.8000 C   0  0  0  0  0  0  0  0  0  0  0  0
    0.1800   -0.2400    4.4200 C   0  0  0  0  0  0  0  0  0  0  0  0
   -1.7000    1.0200    3.7400 C   0  0  0  0  0  0  0  0  0  0  0  0
    1.6600   -0.2400   -3.8400 O   0  0  0  0  0  0  0  0  0  0  0  0
   -0.4600    1.0200    4.4200 O   0  0  0  0  0  0  0  0  0  0  0  0
  1  2  1  0  0  0  0 
  1  3  1  0  0  0  0 
  2  4  1  0  0  0  0 
  3  5  1  0  0  0  0 
  3  6  1  0  0  0  0 
  4  7  1  0  0  0  0 
  4  8  1  0  0  0  0 
  5  9  1  0  0  0  0 
 10  6  1  0  0  0  0 
  7 11  1  0  0  0  0 
 12  8  1  0  0  0  0 
  9 13  1  0  0  0  0 
 13 10  1  0  0  0  0 
 11 14  1  0  0  0  0 
 14 12  1  0  0  0  0 
M  END
> <Name>
Morpholine, 4,4'-(1,2-ethanediyl)bis-

> <Source>
NIH3DMolFile

> <Tox>
285

> <CAS>
1723-94-0

$$$$

  CDK

  8  7  0  0  0  0  0  0  0  0999 V2000
    0.0000    0.0000    0.0000 Br  0  0  0  0  0  0  0  0  0  0  0  0
    1.1600    1.4400   -0.5200 C   0  0  0  0  0  0  0  0  0  0  0  0
    1.5600    2.2400    0.6800 C   0  0  0  0  0  0  0  0  0  0  0  0
    2.3600    0.8600   -1.2800 C   0  0  0  0  0  0  0  0  0  0  0  0
    2.8800    2.3400    0.8800 O   0  0  0  0  0  0  0  0  0  0  0  0
    0.7400    2.7200    1.4200 O   0  0  0  0  0  0  0  0  0  0  0  0
    3.2800   -0.3400   -0.1000 Br  0  0  0  0  0  0  0  0  0  0  0  0
    3.2000    3.0800    2.0400 C   0  0  0  0  0  0  0  0  0  0  0  0
  1  2  1  0  0  0  0 
  2  3  1  0  0  0  0 
  2  4  1  0  0  0  0 
  3  5  1  0  0  0  0 
  3  6  2  0  0  0  0 
  4  7  1  0  0  0  0 
  5  8  1  0  0  0  0 
M  END
> <Name>
Propanoic acid, 2,3-dibromo-, methyl ester

> <Source>
NIH3DMolFile

> <Tox>
206

> <CAS>
1729-67-5

$$$$

  CDK

 12 11  0  0  0  0  0  0  0  0999 V2000
    5.6941    2.5457    1.1295 C   0  0  0  0  0  0  0  0  0  0  0  0
    5.0588    1.3519    1.8261 C   0  0  0  0  0  0  0  0  0  0  0  0
    7.0366    2.9260    1.7338 C   0  0  0  0  0  0  0  0  0  0  0  0
    3.6956    1.0102    1.2466 C   0  0  0  0  0  0  0  0  0  0  0  0
    8.1270    1.9138    1.4175 C   0  0  0  0  0  0  0  0  0  0  0  0
    2.6178    1.9754    1.6868 C   0  0  0  0  0  0  0  0  0  0  0  0
    9.4830    2.3897    1.9129 C   0  0  0  0  0  0  0  0  0  0  0  0
    1.7409    2.2831    0.6814 O   0  0  0  0  0  0  0  0  0  0  0  0
    2.4403    2.4620    2.7858 O   0  0  0  0  0  0  0  0  0  0  0  0
   10.5693    1.3662    1.6227 C   0  0  0  0  0  0  0  0  0  0  0  0
    0.6601    3.1459    0.9607 C   0  0  0  0  0  0  0  0  0  0  0  0
   11.9250    1.8514    2.0837 C   0  0  0  0  0  0  0  0  0  0  0  0
  1  2  1  0  0  0  0 
  1  3  1  0  0  0  0 
  2  4  1  0  0  0  0 
  3  5  1  0  0  0  0 
  4  6  1  0  0  0  0 
  5  7  1  0  0  0  0 
  6  8  1  0  0  0  0 
  6  9  2  0  0  0  0 
  7 10  1  0  0  0  0 
  8 11  1  0  0  0  0 
 10 12  1  0  0  0  0 
M  END
> <Name>
METHYL NONANOATE

> <Source>
NIST3DMolFile

> <Tox>
213.5

> <CAS>
1731-84-6

$$$$

  CDK

  7  7  0  0  0  0  0  0  0  0999 V2000
    1.3166    0.0000    0.0000 N   0  0  0  0  0  0  0  0  0  0  0  0
    0.3038    0.0000    0.0000 C   0  0  0  0  0  0  0  0  0  0  0  0
    1.6204    0.9621    0.0000 C   0  0  0  0  0  0  0  0  0  0  0  0
    0.0000    0.9115    0.0000 C   0  0  0  0  0  0  0  0  0  0  0  0
    0.8102    1.5191    0.0000 N   0  0  0  0  0  0  0  0  0  0  0  0
    2.5825    1.2659    0.0000 C   0  0  0  0  0  0  0  0  0  0  0  0
    0.8102    2.5318    0.0000 C   0  0  0  0  0  0  0  0  0  0  0  0
  1  2  1  0  0  0  0 
  3  1  2  0  0  0  0 
  2  4  2  0  0  0  0 
  5  3  1  0  0  0  0 
  3  6  1  0  0  0  0 
  4  5  1  0  0  0  0 
  5  7  1  0  0  0  0 
M  END
> <Name>
1H-Imidazole, 1,2-dimethyl-

> <Source>
NIST2DMolFile

> <Tox>
206

> <CAS>
1739-84-0

$$$$

  CDK

  7  6  0  0  0  0  0  0  0  0999 V2000
    0.0000    0.0000    0.0000 C   0  0  0  0  0  0  0  0  0  0  0  0
   -1.5200   -0.0600   -0.1800 C   0  0  0  0  0  0  0  0  0  0  0  0
   -1.9600   -1.4000   -0.1400 O   0  0  0  0  0  0  0  0  0  0  0  0
   -1.9800    0.5800   -1.5000 C   0  0  0  0  0  0  0  0  0  0  0  0
   -1.4200   -2.1400   -1.1000 C   0  0  0  0  0  0  0  0  0  0  0  0
   -1.8000   -3.4600   -1.1000 N   0  0  0  0  0  0  0  0  0  0  0  0
   -0.6600   -1.7200   -1.9200 O   0  0  0  0  0  0  0  0  0  0  0  0
  1  2  1  0  0  0  0 
  2  3  1  0  0  0  0 
  2  4  1  0  0  0  0 
  3  5  1  0  0  0  0 
  5  6  1  0  0  0  0 
  5  7  2  0  0  0  0 
M  END
> <Name>
ISOPROPYL CARBAMATE

> <Source>
NIH3DMolFile

> <Tox>
183

> <CAS>
1746-77-6

$$$$

  CDK

  9  9  0  0  0  0  0  0  0  0999 V2000
   -1.8071   -2.0409    0.0002 Cl  0  0  0  0  0  0  0  0  0  0  0  0
   -0.7096   -0.7178   -0.0006 C   0  0  0  0  0  0  0  0  0  0  0  0
    0.5889   -1.0839   -0.0002 N   0  0  0  0  0  0  0  0  0  0  0  0
   -1.1362    0.5946   -0.0005 C   0  0  0  0  0  0  0  0  0  0  0  0
    1.4670   -0.0630    0.0003 C   0  0  0  0  0  0  0  0  0  0  0  0
   -2.5676    0.9932    0.0008 C   0  0  0  0  0  0  0  0  0  0  0  0
   -0.1378    1.5470   -0.0004 C   0  0  0  0  0  0  0  0  0  0  0  0
    3.1236   -0.4817    0.0003 Cl  0  0  0  0  0  0  0  0  0  0  0  0
    1.1789    1.2525    0.0000 N   0  0  0  0  0  0  0  0  0  0  0  0
  1  2  1  0  0  0  0 
  3  2  2  0  0  0  0 
  4  2  1  0  0  0  0 
  3  5  1  0  0  0  0 
  4  6  1  0  0  0  0 
  4  7  2  0  0  0  0 
  8  5  1  0  0  0  0 
  9  5  2  0  0  0  0 
  9  7  1  0  0  0  0 
M  END
> <Name>
Pyrimidine, 2,4-dichloro-5-methyl-

> <Source>
Chemidplus3DMolFile

> <Tox>
235

> <CAS>
1780-31-0

$$$$

  CDK

  8  8  0  0  0  0  0  0  0  0999 V2000
   -0.4287   -0.7481    0.0000 S   0  0  0  0  0  0  0  0  0  0  0  0
    0.3560   -0.4932    0.0000 C   0  0  0  0  0  0  0  0  0  0  0  0
   -0.9136   -0.0807    0.0000 C   0  0  0  0  0  0  0  0  0  0  0  0
    1.0234   -0.9781    0.0000 C   0  0  0  0  0  0  0  0  0  0  0  0
    0.3560    0.3318    0.0000 C   0  0  0  0  0  0  0  0  0  0  0  0
   -0.4287    0.5868    0.0000 C   0  0  0  0  0  0  0  0  0  0  0  0
   -1.7386   -0.0807    0.0000 C   0  0  0  0  0  0  0  0  0  0  0  0
    1.0234    0.8168    0.0000 C   0  0  0  0  0  0  0  0  0  0  0  0
  1  2  1  0  0  0  0 
  1  3  1  0  0  0  0 
  2  4  1  0  0  0  0 
  2  5  2  0  0  0  0 
  6  3  2  0  0  0  0 
  3  7  1  0  0  0  0 
  5  8  1  0  0  0  0 
  5  6  1  0  0  0  0 
M  END
> <Name>
2,3,5-Trimethylthiophene

> <Source>
Smiles

> <Tox>
164.5

> <CAS>
1795-05-7

$$$$

  CDK

 14 14  0  0  0  0  0  0  0  0999 V2000
    5.8020    4.0958    1.3598 C   0  0  0  0  0  0  0  0  0  0  0  0
    4.3987    4.3562    1.8843 C   0  0  0  0  0  0  0  0  0  0  0  0
    6.7752    5.1612    1.8383 C   0  0  0  0  0  0  0  0  0  0  0  0
    3.3917    3.3173    1.3894 C   0  0  0  0  0  0  0  0  0  0  0  0
    8.1792    4.9007    1.3170 C   0  0  0  0  0  0  0  0  0  0  0  0
    1.9675    3.7610    1.7155 C   0  0  0  0  0  0  0  0  0  0  0  0
    3.6699    1.9363    1.9945 C   0  0  0  0  0  0  0  0  0  0  0  0
    9.1515    5.9696    1.7891 C   0  0  0  0  0  0  0  0  0  0  0  0
    0.9348    2.8340    1.0868 C   0  0  0  0  0  0  0  0  0  0  0  0
    2.4193    1.0704    2.0872 C   0  0  0  0  0  0  0  0  0  0  0  0
   10.5568    5.7056    1.2734 C   0  0  0  0  0  0  0  0  0  0  0  0
    1.4267    1.3952    0.9862 C   0  0  0  0  0  0  0  0  0  0  0  0
   11.5290    6.7776    1.7395 C   0  0  0  0  0  0  0  0  0  0  0  0
   12.9275    6.5182    1.2264 C   0  0  0  0  0  0  0  0  0  0  0  0
  1  2  1  0  0  0  0 
  1  3  1  0  0  0  0 
  2  4  1  0  0  0  0 
  3  5  1  0  0  0  0 
  6  4  1  0  0  0  0 
  4  7  1  0  0  0  0 
  5  8  1  0  0  0  0 
  9  6  1  0  0  0  0 
  7 10  1  0  0  0  0 
  8 11  1  0  0  0  0 
 12  9  1  0  0  0  0 
 10 12  1  0  0  0  0 
 11 13  1  0  0  0  0 
 13 14  1  0  0  0  0 
M  END
> <Name>
1-CYCLOHEXYLOCTANE

> <Source>
NIST3DMolFile

> <Tox>
264

> <CAS>
1795-15-9

$$$$

  CDK

 20 20  0  0  0  0  0  0  0  0999 V2000
    2.5544    2.1632    1.0939 C   0  0  0  0  0  0  0  0  0  0  0  0
    1.7341    3.3588    1.5450 C   0  0  0  0  0  0  0  0  0  0  0  0
    1.8785    0.8519    1.4741 C   0  0  0  0  0  0  0  0  0  0  0  0
    1.6082    3.4214    3.0726 C   0  0  0  0  0  0  0  0  0  0  0  0
    1.0417    0.9810    2.7403 C   0  0  0  0  0  0  0  0  0  0  0  0
    1.6187    2.0171    3.6878 C   0  0  0  0  0  0  0  0  0  0  0  0
    2.7148    4.2949    3.6643 C   0  0  0  0  0  0  0  0  0  0  0  0
    2.4870    4.6216    5.1329 C   0  0  0  0  0  0  0  0  0  0  0  0
    3.6791    5.3556    5.7278 C   0  0  0  0  0  0  0  0  0  0  0  0
    4.9109    4.4606    5.7811 C   0  0  0  0  0  0  0  0  0  0  0  0
    6.1681    5.2007    6.2013 C   0  0  0  0  0  0  0  0  0  0  0  0
    6.1693    5.5647    7.6775 C   0  0  0  0  0  0  0  0  0  0  0  0
    7.4050    6.3645    8.0561 C   0  0  0  0  0  0  0  0  0  0  0  0
    7.4483    7.7172    7.3576 C   0  0  0  0  0  0  0  0  0  0  0  0
    8.8061    8.3864    7.5021 C   0  0  0  0  0  0  0  0  0  0  0  0
    9.9013    7.5983    6.8015 C   0  0  0  0  0  0  0  0  0  0  0  0
   11.2751    8.1827    7.0655 C   0  0  0  0  0  0  0  0  0  0  0  0
   12.3362    7.5279    6.1930 C   0  0  0  0  0  0  0  0  0  0  0  0
   12.1067    7.8226    4.7183 C   0  0  0  0  0  0  0  0  0  0  0  0
   13.0927    7.0889    3.8393 C   0  0  0  0  0  0  0  0  0  0  0  0
  2  1  1  0  0  0  0 
  1  3  1  0  0  0  0 
  4  2  1  0  0  0  0 
  3  5  1  0  0  0  0 
  6  4  1  0  0  0  0 
  4  7  1  0  0  0  0 
  5  6  1  0  0  0  0 
  7  8  1  0  0  0  0 
  8  9  1  0  0  0  0 
  9 10  1  0  0  0  0 
 11 10  1  0  0  0  0 
 12 11  1  0  0  0  0 
 13 12  1  0  0  0  0 
 14 13  1  0  0  0  0 
 14 15  1  0  0  0  0 
 15 16  1  0  0  0  0 
 17 16  1  0  0  0  0 
 18 17  1  0  0  0  0 
 19 18  1  0  0  0  0 
 20 19  1  0  0  0  0 
M  END
> <Name>
N-TETRADECYLCYCLOHEXANE

> <Source>
NIST3DMolFile

> <Tox>
360

> <CAS>
1795-18-2

$$$$

  CDK

  9  9  0  0  0  0  0  0  0  0999 V2000
    2.0540    1.2479    4.0014 C   0  0  0  0  0  0  0  0  0  0  0  0
    2.2628    1.1547    5.5032 C   0  0  0  0  0  0  0  0  0  0  0  0
    1.3929    2.5696    3.6257 C   0  0  0  0  0  0  0  0  0  0  0  0
    3.3857    1.0814    3.2636 C   0  0  0  0  0  0  0  0  0  0  0  0
    1.0082    2.5963    2.1436 C   0  0  0  0  0  0  0  0  0  0  0  0
    3.3899    1.7680    1.8950 C   0  0  0  0  0  0  0  0  0  0  0  0
    0.9139    4.0329    1.6552 C   0  0  0  0  0  0  0  0  0  0  0  0
    1.9895    1.7858    1.2905 C   0  0  0  0  0  0  0  0  0  0  0  0
    4.3713    1.0855    0.9579 C   0  0  0  0  0  0  0  0  0  0  0  0
  1  2  1  0  0  0  0 
  1  3  1  0  0  0  0 
  4  1  1  0  0  0  0 
  5  3  1  0  0  0  0 
  6  4  1  0  0  0  0 
  5  7  1  0  0  0  0 
  8  5  1  0  0  0  0 
  6  8  1  0  0  0  0 
  6  9  1  0  0  0  0 
M  END
> <Name>
CYCLOHEXANE, 1,3,5-TRIMETHYL-, (1.ALPHA.,3.ALPHA

> <Source>
NIST3DMolFile

> <Tox>
140.5

> <CAS>
1795-26-2

$$$$

  CDK

 15 15  0  0  0  0  0  0  0  0999 V2000
    3.4506    1.5503    0.0000 C   0  0  0  0  0  0  0  0  0  0  0  0
    2.6005    2.0003    0.0000 O   0  0  0  0  0  0  0  0  0  0  0  0
    4.3008    2.0504    0.0000 C   0  0  0  0  0  0  0  0  0  0  0  0
    1.7503    1.5003    0.0000 C   0  0  0  0  0  0  0  0  0  0  0  0
    5.2009    1.5003    0.0000 C   0  0  0  0  0  0  0  0  0  0  0  0
    0.8501    2.0003    0.0000 C   0  0  0  0  0  0  0  0  0  0  0  0
    1.7503    0.5001    0.0000 C   0  0  0  0  0  0  0  0  0  0  0  0
    6.0511    2.0003    0.0000 C   0  0  0  0  0  0  0  0  0  0  0  0
    0.0000    1.5003    0.0000 C   0  0  0  0  0  0  0  0  0  0  0  0
    0.8501    0.0000    0.0000 C   0  0  0  0  0  0  0  0  0  0  0  0
    6.9512    1.5503    0.0000 C   0  0  0  0  0  0  0  0  0  0  0  0
    0.0000    0.5001    0.0000 C   0  0  0  0  0  0  0  0  0  0  0  0
    7.8014    2.0504    0.0000 C   0  0  0  0  0  0  0  0  0  0  0  0
    8.6515    1.5503    0.0000 C   0  0  0  0  0  0  0  0  0  0  0  0
    9.5017    2.1004    0.0000 C   0  0  0  0  0  0  0  0  0  0  0  0
  1  2  1  0  0  0  0 
  1  3  1  0  0  0  0 
  2  4  1  0  0  0  0 
  3  5  1  0  0  0  0 
  6  4  2  0  0  0  0 
  4  7  1  0  0  0  0 
  5  8  1  0  0  0  0 
  9  6  1  0  0  0  0 
  7 10  2  0  0  0  0 
  8 11  1  0  0  0  0 
 12  9  2  0  0  0  0 
 10 12  1  0  0  0  0 
 11 13  1  0  0  0  0 
 13 14  1  0  0  0  0 
 14 15  1  0  0  0  0 
M  END
> <Name>
Benzene, (octyloxy)-

> <Source>
NIST2DMolFile

> <Tox>
285

> <CAS>
1818-07-1

$$$$

  CDK

 12 12  0  0  0  0  0  0  0  0999 V2000
    4.1288    1.3919    2.0832 C   0  0  0  0  0  0  0  0  0  0  0  0
    4.6467    2.2027    0.9019 C   0  0  0  0  0  0  0  0  0  0  0  0
    2.7862    0.7431    1.7888 C   0  0  0  0  0  0  0  0  0  0  0  0
    5.9833    2.7943    1.2135 C   0  0  0  0  0  0  0  0  0  0  0  0
    1.6521    1.7358    1.7489 C   0  0  0  0  0  0  0  0  0  0  0  0
    6.0869    4.1226    1.6288 C   0  0  0  0  0  0  0  0  0  0  0  0
    7.1374    2.0181    1.0904 C   0  0  0  0  0  0  0  0  0  0  0  0
    0.6882    1.4610    0.8364 O   0  0  0  0  0  0  0  0  0  0  0  0
    1.4591    2.7304    2.4250 O   0  0  0  0  0  0  0  0  0  0  0  0
    7.3334    4.6673    1.9158 C   0  0  0  0  0  0  0  0  0  0  0  0
    8.3811    2.5671    1.3793 C   0  0  0  0  0  0  0  0  0  0  0  0
    8.4811    3.8916    1.7916 C   0  0  0  0  0  0  0  0  0  0  0  0
  1  2  1  0  0  0  0 
  1  3  1  0  0  0  0 
  2  4  1  0  0  0  0 
  3  5  1  0  0  0  0 
  4  6  2  0  0  0  0 
  7  4  1  0  0  0  0 
  5  8  1  0  0  0  0 
  5  9  2  0  0  0  0 
  6 10  1  0  0  0  0 
 11  7  2  0  0  0  0 
 10 12  2  0  0  0  0 
 12 11  1  0  0  0  0 
M  END
> <Name>
4-PHENYLBUTYRIC ACID

> <Source>
NIST3DMolFile

> <Tox>
290

> <CAS>
1821-12-1

$$$$

  CDK

 12 13  0  0  0  0  0  0  0  0999 V2000
    0.0000    0.0000    0.0000 Cl  0  0  0  0  0  0  0  0  0  0  0  0
    0.3000    1.6800    0.1600 C   0  0  0  0  0  0  0  0  0  0  0  0
    1.5800    2.2200    0.4400 C   0  0  0  0  0  0  0  0  0  0  0  0
   -0.8000    2.5600    0.0400 C   0  0  0  0  0  0  0  0  0  0  0  0
    1.7400    3.6600    0.5600 C   0  0  0  0  0  0  0  0  0  0  0  0
    2.7200    1.4000    0.5800 C   0  0  0  0  0  0  0  0  0  0  0  0
   -0.6400    3.9400    0.1600 C   0  0  0  0  0  0  0  0  0  0  0  0
    0.6200    4.5000    0.4200 C   0  0  0  0  0  0  0  0  0  0  0  0
    3.0200    4.1800    0.8400 C   0  0  0  0  0  0  0  0  0  0  0  0
    3.9800    1.9400    0.8400 C   0  0  0  0  0  0  0  0  0  0  0  0
    0.7000    6.2200    0.5600 Cl  0  0  0  0  0  0  0  0  0  0  0  0
    4.1400    3.3200    0.9800 C   0  0  0  0  0  0  0  0  0  0  0  0
  1  2  1  0  0  0  0 
  2  3  2  0  0  0  0 
  2  4  1  0  0  0  0 
  3  5  1  0  0  0  0 
  3  6  1  0  0  0  0 
  7  4  2  0  0  0  0 
  5  8  2  0  0  0  0 
  5  9  1  0  0  0  0 
 10  6  2  0  0  0  0 
  8  7  1  0  0  0  0 
  8 11  1  0  0  0  0 
  9 12  2  0  0  0  0 
 12 10  1  0  0  0  0 
M  END
> <Name>
1,4-DICHLORONAPHTHALENE

> <Source>
NIH3DMolFile

> <Tox>
288

> <CAS>
1825-31-6

$$$$

  CDK

 18 18  0  0  0  0  0  0  0  0999 V2000
    2.3118   -1.9749    0.0000 C   0  0  0  0  0  0  0  0  0  0  0  0
    1.1559   -2.6288    0.0000 C   0  0  0  0  0  0  0  0  0  0  0  0
    3.4611   -2.6288    0.0000 C   0  0  0  0  0  0  0  0  0  0  0  0
    2.3118   -0.6407    0.0000 C   0  0  0  0  0  0  0  0  0  0  0  0
    1.1559   -3.9762    0.0000 C   0  0  0  0  0  0  0  0  0  0  0  0
    0.0000   -1.9749    0.0000 Cl  0  0  0  0  0  0  0  0  0  0  0  0
    3.4611   -3.9762    0.0000 C   0  0  0  0  0  0  0  0  0  0  0  0
    4.6169   -1.9749    0.0000 Cl  0  0  0  0  0  0  0  0  0  0  0  0
    3.4611   -0.0000    0.0000 O   0  0  0  0  0  0  0  0  0  0  0  0
    1.1559   -0.0000    0.0000 O   0  0  0  0  0  0  0  0  0  0  0  0
    2.3118   -4.6302    0.0000 C   0  0  0  0  0  0  0  0  0  0  0  0
    0.0000   -4.6302    0.0000 Cl  0  0  0  0  0  0  0  0  0  0  0  0
    4.6169   -4.6302    0.0000 Cl  0  0  0  0  0  0  0  0  0  0  0  0
    0.0000   -0.6869    0.0000 C   0  0  0  0  0  0  0  0  0  0  0  0
    2.3118   -5.9644    0.0000 C   0  0  0  0  0  0  0  0  0  0  0  0
    1.1559   -6.6051    0.0000 O   0  0  0  0  0  0  0  0  0  0  0  0
    3.4611   -6.6051    0.0000 O   0  0  0  0  0  0  0  0  0  0  0  0
    4.6169   -5.9181    0.0000 C   0  0  0  0  0  0  0  0  0  0  0  0
  1  2  2  0  0  0  0 
  1  3  1  0  0  0  0 
  1  4  1  0  0  0  0 
  2  5  1  0  0  0  0 
  2  6  1  0  0  0  0 
  7  3  2  0  0  0  0 
  3  8  1  0  0  0  0 
  4  9  2  0  0  0  0 
  4 10  1  0  0  0  0 
 11  5  2  0  0  0  0 
  5 12  1  0  0  0  0 
 11  7  1  0  0  0  0 
  7 13  1  0  0  0  0 
 10 14  1  0  0  0  0 
 11 15  1  0  0  0  0 
 15 16  2  0  0  0  0 
 15 17  1  0  0  0  0 
 17 18  1  0  0  0  0 
M  END
> <Name>
DIMETHYL TETRACHLOROTEREPHTHALATE

> <Source>
DSSTox2DMolFile

> <Tox>
365

> <CAS>
1861-32-1

$$$$

  CDK

  6  5  0  0  0  0  0  0  0  0999 V2000
    2.5838    1.4906    0.0000 C   0  0  0  0  0  0  0  0  0  0  0  0
    1.7391    0.9938    0.0000 C   0  0  0  0  0  0  0  0  0  0  0  0
    3.4781    0.9938    0.0000 C   0  0  0  0  0  0  0  0  0  0  0  0
    0.8944    1.4906    0.0000 C   0  0  0  0  0  0  0  0  0  0  0  0
    1.7391    0.0000    0.0000 O   0  0  0  0  0  0  0  0  0  0  0  0
    0.0000    0.9938    0.0000 Cl  0  0  0  0  0  0  0  0  0  0  0  0
  1  2  1  0  0  0  0 
  1  3  1  0  0  0  0 
  2  4  1  0  0  0  0 
  2  5  1  0  0  0  0 
  4  6  1  0  0  0  0 
M  END
> <Name>
2-BUTANOL, 1-CHLORO-

> <Source>
NIST2DMolFile

> <Tox>
141

> <CAS>
1873-25-2

$$$$

  CDK

  7  6  0  0  0  0  0  0  0  0999 V2000
    2.0190    1.0095    0.0000 C   0  0  0  0  0  0  0  0  0  0  0  0
    1.0095    1.0095    0.0000 Si  0  0  0  0  0  0  0  0  0  0  0  0
    2.5238    1.8171    0.0000 C   0  0  0  0  0  0  0  0  0  0  0  0
    1.0095    0.0000    0.0000 C   0  0  0  0  0  0  0  0  0  0  0  0
    1.0095    1.9686    0.0000 Cl  0  0  0  0  0  0  0  0  0  0  0  0
    0.0000    1.0095    0.0000 Cl  0  0  0  0  0  0  0  0  0  0  0  0
    3.5838    1.8171    0.0000 C   0  0  0  0  0  0  0  0  0  0  0  0
  1  2  1  0  0  0  0 
  1  3  1  0  0  0  0 
  2  4  1  0  0  0  0 
  2  5  1  0  0  0  0 
  2  6  1  0  0  0  0 
  3  7  2  0  0  0  0 
M  END
> <Name>
SILANE, DICHLOROMETHYL-2-PROPENYL-

> <Source>
NIST2DMolFile

> <Tox>
119.5

> <CAS>
1873-92-3

$$$$

  CDK

 10 10  0  0  0  0  0  0  0  0999 V2000
    0.0000    0.8546    0.0000 Cl  0  0  0  0  0  0  0  0  0  0  0  0
    1.0054    0.8546    0.0000 C   0  0  0  0  0  0  0  0  0  0  0  0
    1.5081    1.7091    0.0000 C   0  0  0  0  0  0  0  0  0  0  0  0
    1.5081    0.0000    0.0000 C   0  0  0  0  0  0  0  0  0  0  0  0
    2.5134    1.7091    0.0000 C   0  0  0  0  0  0  0  0  0  0  0  0
    2.5134    0.0000    0.0000 C   0  0  0  0  0  0  0  0  0  0  0  0
    3.0161    0.8546    0.0000 C   0  0  0  0  0  0  0  0  0  0  0  0
    3.8707    1.3573    0.0000 C   0  0  0  0  0  0  0  0  0  0  0  0
    4.7253    0.8546    0.0000 C   0  0  0  0  0  0  0  0  0  0  0  0
    5.6301    1.3573    0.0000 O   0  0  0  0  0  0  0  0  0  0  0  0
  1  2  1  0  0  0  0 
  2  3  2  0  0  0  0 
  4  2  1  0  0  0  0 
  3  5  1  0  0  0  0 
  6  4  2  0  0  0  0 
  5  7  2  0  0  0  0 
  7  6  1  0  0  0  0 
  8  7  1  0  0  0  0 
  9  8  1  0  0  0  0 
 10  9  1  0  0  0  0 
M  END
> <Name>
4-(2-HYDROXYETHYL)-CHLORBENZOL

> <Source>
NIST2DMolFile

> <Tox>
259

> <CAS>
1875-88-3

$$$$

  CDK

 13 13  0  0  0  0  0  0  0  0999 V2000
    5.9054    4.0076    1.7959 C   0  0  0  0  0  0  0  0  0  0  0  0
    5.9103    2.6152    1.8590 C   0  0  0  0  0  0  0  0  0  0  0  0
    4.6780    4.6967    1.8686 C   0  0  0  0  0  0  0  0  0  0  0  0
    7.2036    4.7216    1.6512 C   0  0  0  0  0  0  0  0  0  0  0  0
    4.7191    1.9101    1.9806 C   0  0  0  0  0  0  0  0  0  0  0  0
    3.4559    4.0011    2.0274 C   0  0  0  0  0  0  0  0  0  0  0  0
    4.6192    6.0616    1.7736 O   0  0  0  0  0  0  0  0  0  0  0  0
    3.5137    2.6084    2.0575 C   0  0  0  0  0  0  0  0  0  0  0  0
    4.7130    0.4253    2.0317 C   0  0  0  0  0  0  0  0  0  0  0  0
    2.1050    4.6957    2.1266 C   0  0  0  0  0  0  0  0  0  0  0  0
    1.7480    5.2790    0.7570 C   0  0  0  0  0  0  0  0  0  0  0  0
    0.9876    3.7236    2.5330 C   0  0  0  0  0  0  0  0  0  0  0  0
    2.1228    5.8032    3.1853 C   0  0  0  0  0  0  0  0  0  0  0  0
  1  2  2  0  0  0  0 
  3  1  1  0  0  0  0 
  1  4  1  0  0  0  0 
  2  5  1  0  0  0  0 
  6  3  2  0  0  0  0 
  3  7  1  0  0  0  0 
  5  8  2  0  0  0  0 
  5  9  1  0  0  0  0 
  8  6  1  0  0  0  0 
  6 10  1  0  0  0  0 
 10 11  1  0  0  0  0 
 10 12  1  0  0  0  0 
 10 13  1  0  0  0  0 
M  END
> <Name>
2-(1,1-DIMETHYLETHYL)-4,6-DIMETHYLPHENOL

> <Source>
NIST3DMolFile

> <Tox>
249

> <CAS>
1879-09-0

$$$$

  CDK

  9  9  0  0  0  0  0  0  0  0999 V2000
    0.0000    1.9926    0.0000 C   0  0  0  0  0  0  0  0  0  0  0  0
    0.8967    2.4908    0.0000 C   0  0  0  0  0  0  0  0  0  0  0  0
    0.0000    0.9963    0.0000 C   0  0  0  0  0  0  0  0  0  0  0  0
    1.7435    1.9926    0.0000 C   0  0  0  0  0  0  0  0  0  0  0  0
    0.8967    0.4982    0.0000 C   0  0  0  0  0  0  0  0  0  0  0  0
    1.7435    0.9963    0.0000 C   0  0  0  0  0  0  0  0  0  0  0  0
    2.5904    2.4908    0.0000 N   0  0  0  0  0  0  0  0  0  0  0  0
    2.5904    0.4982    0.0000 C   0  0  0  0  0  0  0  0  0  0  0  0
    3.4871    0.0000    0.0000 N   0  0  0  0  0  0  0  0  0  0  0  0
  1  2  2  0  0  0  0 
  3  1  1  0  0  0  0 
  2  4  1  0  0  0  0 
  5  3  2  0  0  0  0 
  4  6  2  0  0  0  0 
  4  7  1  0  0  0  0 
  6  5  1  0  0  0  0 
  6  8  1  0  0  0  0 
  8  9  3  0  0  0  0 
M  END
> <Name>
Benzonitrile, 2-amino-

> <Source>
NIST2DMolFile

> <Tox>
263

> <CAS>
1885-29-6

$$$$

  CDK

 10  9  0  0  0  0  0  0  0  0999 V2000
    6.7456    2.6717    1.4359 C   0  0  0  0  0  0  0  0  0  0  0  0
    5.7995    1.9622    1.5894 C   0  0  0  0  0  0  0  0  0  0  0  0
    7.8937    3.5191    1.2508 C   0  0  0  0  0  0  0  0  0  0  0  0
    4.6576    1.1063    1.7740 C   0  0  0  0  0  0  0  0  0  0  0  0
    7.4930    4.9859    1.1429 C   0  0  0  0  0  0  0  0  0  0  0  0
    3.3586    1.8278    1.4341 C   0  0  0  0  0  0  0  0  0  0  0  0
    8.7118    5.8691    0.9283 C   0  0  0  0  0  0  0  0  0  0  0  0
    2.1584    0.9195    1.6490 C   0  0  0  0  0  0  0  0  0  0  0  0
    8.3259    7.3280    0.8351 C   0  0  0  0  0  0  0  0  0  0  0  0
    0.8657    1.6210    1.2993 C   0  0  0  0  0  0  0  0  0  0  0  0
  1  2  3  0  0  0  0 
  1  3  1  0  0  0  0 
  2  4  1  0  0  0  0 
  3  5  1  0  0  0  0 
  4  6  1  0  0  0  0 
  5  7  1  0  0  0  0 
  6  8  1  0  0  0  0 
  7  9  1  0  0  0  0 
  8 10  1  0  0  0  0 
M  END
> <Name>
5-DECYNE

> <Source>
NIST3DMolFile

> <Tox>
177

> <CAS>
1942-46-7

$$$$

  CDK

 12 12  0  0  0  0  0  0  0  0999 V2000
    3.4654   -5.3232    0.0000 O   0  0  0  0  0  0  0  0  0  0  0  0
    3.4654   -3.9924    0.0000 C   0  0  0  0  0  0  0  0  0  0  0  0
    4.6152   -3.3163    0.0000 C   0  0  0  0  0  0  0  0  0  0  0  0
    2.3103   -3.3163    0.0000 C   0  0  0  0  0  0  0  0  0  0  0  0
    4.6152   -2.0015    0.0000 C   0  0  0  0  0  0  0  0  0  0  0  0
    2.3103   -2.0015    0.0000 C   0  0  0  0  0  0  0  0  0  0  0  0
    3.4654   -1.3308    0.0000 C   0  0  0  0  0  0  0  0  0  0  0  0
    1.1551   -1.3308    0.0000 C   0  0  0  0  0  0  0  0  0  0  0  0
    3.4654   -0.0000    0.0000 O   0  0  0  0  0  0  0  0  0  0  0  0
    0.4951   -2.4859    0.0000 C   0  0  0  0  0  0  0  0  0  0  0  0
    0.0000   -0.6760    0.0000 C   0  0  0  0  0  0  0  0  0  0  0  0
    1.8258   -0.1757    0.0000 C   0  0  0  0  0  0  0  0  0  0  0  0
  1  2  1  0  0  0  0 
  3  2  2  0  0  0  0 
  2  4  1  0  0  0  0 
  5  3  1  0  0  0  0 
  6  4  2  0  0  0  0 
  5  7  2  0  0  0  0 
  7  6  1  0  0  0  0 
  6  8  1  0  0  0  0 
  7  9  1  0  0  0  0 
  8 10  1  0  0  0  0 
  8 11  1  0  0  0  0 
  8 12  1  0  0  0  0 
M  END
> <Name>
2-tert-Butylhydroquinone

> <Source>
DSSTox2DMolFile

> <Tox>
273

> <CAS>
1948-33-0

$$$$

  CDK

  9  9  0  0  0  0  0  0  0  0999 V2000
    1.9585    2.6113    0.0000 C   0  0  0  0  0  0  0  0  0  0  0  0
    1.4563    1.7576    0.0000 C   0  0  0  0  0  0  0  0  0  0  0  0
    2.9628    2.6113    0.0000 C   0  0  0  0  0  0  0  0  0  0  0  0
    1.9585    0.9039    0.0000 C   0  0  0  0  0  0  0  0  0  0  0  0
    0.4520    1.7576    0.0000 C   0  0  0  0  0  0  0  0  0  0  0  0
    3.4650    1.7576    0.0000 C   0  0  0  0  0  0  0  0  0  0  0  0
    2.9628    0.9039    0.0000 C   0  0  0  0  0  0  0  0  0  0  0  0
    1.4061    0.0000    0.0000 Br  0  0  0  0  0  0  0  0  0  0  0  0
    0.0000    0.9039    0.0000 C   0  0  0  0  0  0  0  0  0  0  0  0
  1  2  2  0  0  0  0 
  3  1  1  0  0  0  0 
  2  4  1  0  0  0  0 
  2  5  1  0  0  0  0 
  6  3  2  0  0  0  0 
  4  7  2  0  0  0  0 
  4  8  1  0  0  0  0 
  5  9  1  0  0  0  0 
  7  6  1  0  0  0  0 
M  END
> <Name>
1-Bromo-2-ethylbenzene

> <Source>
NIST2DMolFile

> <Tox>
199.3

> <CAS>
1973-22-4

$$$$

  CDK

  5  4  0  0  0  0  0  0  0  0999 V2000
    2.1093    1.7906    0.9119 C   0  0  0  0  0  0  0  0  0  0  0  0
    3.4202    1.1602    0.9370 C   0  0  0  0  0  0  0  0  0  0  0  0
    0.9806    1.0851    0.9500 C   0  0  0  0  0  0  0  0  0  0  0  0
    4.5516    1.8721    0.8817 C   0  0  0  0  0  0  0  0  0  0  0  0
    5.8943    1.2535    0.9047 C   0  0  0  0  0  0  0  0  0  0  0  0
  1  2  1  0  0  0  0 
  1  3  2  0  0  0  0 
  2  4  2  0  0  0  0 
  4  5  1  0  0  0  0 
M  END
> <Name>
1,3-PENTADIENE (E)

> <Source>
NIST3DMolFile

> <Tox>
42

> <CAS>
2004-70-8

$$$$

  CDK

 11 10  0  0  0  0  0  0  0  0999 V2000
    0.0000   -0.6673    0.0000 C   0  0  0  0  0  0  0  0  0  0  0  0
    1.1505   -0.0000    0.0000 C   0  0  0  0  0  0  0  0  0  0  0  0
    2.3010   -0.6673    0.0000 C   0  0  0  0  0  0  0  0  0  0  0  0
    3.4515   -0.0000    0.0000 C   0  0  0  0  0  0  0  0  0  0  0  0
    4.6020   -0.6673    0.0000 C   0  0  0  0  0  0  0  0  0  0  0  0
    5.7525   -0.0000    0.0000 C   0  0  0  0  0  0  0  0  0  0  0  0
    6.9029   -0.6673    0.0000 C   0  0  0  0  0  0  0  0  0  0  0  0
    8.0534   -0.0000    0.0000 C   0  0  0  0  0  0  0  0  0  0  0  0
    9.2039   -0.6673    0.0000 C   0  0  0  0  0  0  0  0  0  0  0  0
   10.3544   -0.0000    0.0000 C   0  0  0  0  0  0  0  0  0  0  0  0
   11.5049   -0.6673    0.0000 N   0  0  0  0  0  0  0  0  0  0  0  0
  1  2  1  0  0  0  0 
  2  3  1  0  0  0  0 
  3  4  1  0  0  0  0 
  4  5  1  0  0  0  0 
  5  6  1  0  0  0  0 
  6  7  1  0  0  0  0 
  7  8  1  0  0  0  0 
  8  9  1  0  0  0  0 
  9 10  1  0  0  0  0 
 10 11  1  0  0  0  0 
M  END
> <Name>
N-DECYLAMINE

> <Source>
DSSTox2DMolFile

> <Tox>
220.5

> <CAS>
2016-57-1

$$$$

  CDK

  9  9  0  0  0  0  0  0  0  0999 V2000
    3.9905   -2.3049    0.0000 C   0  0  0  0  0  0  0  0  0  0  0  0
    4.6563   -3.4550    0.0000 C   0  0  0  0  0  0  0  0  0  0  0  0
    2.6588   -2.3049    0.0000 C   0  0  0  0  0  0  0  0  0  0  0  0
    1.9976   -3.4550    0.0000 C   0  0  0  0  0  0  0  0  0  0  0  0
    1.9976   -1.1501    0.0000 C   0  0  0  0  0  0  0  0  0  0  0  0
    0.6659   -3.4550    0.0000 C   0  0  0  0  0  0  0  0  0  0  0  0
    0.6659   -1.1501    0.0000 C   0  0  0  0  0  0  0  0  0  0  0  0
    2.6588   -0.0000    0.0000 Cl  0  0  0  0  0  0  0  0  0  0  0  0
    0.0000   -2.3049    0.0000 C   0  0  0  0  0  0  0  0  0  0  0  0
  1  2  2  0  0  0  0 
  1  3  1  0  0  0  0 
  3  4  2  0  0  0  0 
  3  5  1  0  0  0  0 
  4  6  1  0  0  0  0 
  7  5  2  0  0  0  0 
  5  8  1  0  0  0  0 
  6  9  2  0  0  0  0 
  9  7  1  0  0  0  0 
M  END
> <Name>
O-CHLOROSTYRENE

> <Source>
DSSTox2DMolFile

> <Tox>
188.7

> <CAS>
2039-87-4

$$$$

  CDK

  9  9  0  0  0  0  0  0  0  0999 V2000
    0.0000    0.0000    0.0000 C   0  0  0  0  0  0  0  0  0  0  0  0
    0.4970    0.8450    0.0000 C   0  0  0  0  0  0  0  0  0  0  0  0
    1.5408    0.8450    0.0000 C   0  0  0  0  0  0  0  0  0  0  0  0
    2.0378    1.7396    0.0000 C   0  0  0  0  0  0  0  0  0  0  0  0
    2.0378    0.0000    0.0000 C   0  0  0  0  0  0  0  0  0  0  0  0
    1.5408    2.5846    0.0000 Br  0  0  0  0  0  0  0  0  0  0  0  0
    3.0319    1.7396    0.0000 C   0  0  0  0  0  0  0  0  0  0  0  0
    3.0319    0.0000    0.0000 C   0  0  0  0  0  0  0  0  0  0  0  0
    3.5289    0.8450    0.0000 C   0  0  0  0  0  0  0  0  0  0  0  0
  1  2  2  0  0  0  0 
  2  3  1  0  0  0  0 
  4  3  2  0  0  0  0 
  3  5  1  0  0  0  0 
  4  6  1  0  0  0  0 
  7  4  1  0  0  0  0 
  5  8  2  0  0  0  0 
  9  7  2  0  0  0  0 
  8  9  1  0  0  0  0 
M  END
> <Name>
2-BROMOSTYRENE

> <Source>
NIST2DMolFile

> <Tox>
209.2

> <CAS>
2039-88-5

$$$$

  CDK

  9  9  0  0  0  0  0  0  0  0999 V2000
    3.0734    4.2701    1.6531 C   0  0  0  0  0  0  0  0  0  0  0  0
    4.2130    3.5555    0.9413 C   0  0  0  0  0  0  0  0  0  0  0  0
    1.9007    3.3377    1.9160 C   0  0  0  0  0  0  0  0  0  0  0  0
    4.8376    2.4670    1.8062 C   0  0  0  0  0  0  0  0  0  0  0  0
    0.8426    3.9944    2.7713 C   0  0  0  0  0  0  0  0  0  0  0  0
    5.7082    3.0134    2.9409 C   0  0  0  0  0  0  0  0  0  0  0  0
    5.7617    1.5470    1.0036 C   0  0  0  0  0  0  0  0  0  0  0  0
    6.7657    1.9490    3.2123 C   0  0  0  0  0  0  0  0  0  0  0  0
    6.8393    1.0622    1.9696 C   0  0  0  0  0  0  0  0  0  0  0  0
  1  2  1  0  0  0  0 
  1  3  1  0  0  0  0 
  2  4  1  0  0  0  0 
  3  5  1  0  0  0  0 
  4  6  1  0  0  0  0 
  7  4  1  0  0  0  0 
  6  8  1  0  0  0  0 
  9  7  1  0  0  0  0 
  8  9  1  0  0  0  0 
M  END
> <Name>
CYCLOPENTANE, BUTYL-

> <Source>
NIST3DMolFile

> <Tox>
156.6

> <CAS>
2040-95-1

$$$$

  CDK

  9  9  0  0  0  0  0  0  0  0999 V2000
    0.0000    0.8982    0.0000 N   0  0  0  0  0  0  0  0  0  0  0  0
    0.9980    0.8982    0.0000 C   0  0  0  0  0  0  0  0  0  0  0  0
    1.9961    0.8982    0.0000 C   0  0  0  0  0  0  0  0  0  0  0  0
    2.4951    1.7466    0.0000 C   0  0  0  0  0  0  0  0  0  0  0  0
    2.4951    0.0000    0.0000 C   0  0  0  0  0  0  0  0  0  0  0  0
    1.9961    2.5949    0.0000 Br  0  0  0  0  0  0  0  0  0  0  0  0
    3.4932    1.7466    0.0000 C   0  0  0  0  0  0  0  0  0  0  0  0
    3.4932    0.0000    0.0000 C   0  0  0  0  0  0  0  0  0  0  0  0
    3.9922    0.8483    0.0000 C   0  0  0  0  0  0  0  0  0  0  0  0
  1  2  3  0  0  0  0 
  2  3  1  0  0  0  0 
  4  3  2  0  0  0  0 
  3  5  1  0  0  0  0 
  4  6  1  0  0  0  0 
  7  4  1  0  0  0  0 
  5  8  2  0  0  0  0 
  9  7  2  0  0  0  0 
  8  9  1  0  0  0  0 
M  END
> <Name>
2-BROMOBENZONITRILE

> <Source>
NIST2DMolFile

> <Tox>
252

> <CAS>
2042-37-7

$$$$

  CDK

 11 11  0  0  0  0  0  0  0  0999 V2000
    0.0117    1.8826   -0.4088 O   0  0  0  0  0  0  0  0  0  0  0  0
   -0.6264    0.6952   -0.2101 C   0  0  0  0  0  0  0  0  0  0  0  0
    0.0238    2.8020    0.6814 C   0  0  0  0  0  0  0  0  0  0  0  0
    0.0623   -0.4097    0.2903 C   0  0  0  0  0  0  0  0  0  0  0  0
   -1.9840    0.5923   -0.5130 C   0  0  0  0  0  0  0  0  0  0  0  0
    1.5156   -0.3179    0.6199 C   0  0  0  0  0  0  0  0  0  0  0  0
   -0.6067   -1.6177    0.4876 C   0  0  0  0  0  0  0  0  0  0  0  0
   -2.6531   -0.6157   -0.3156 C   0  0  0  0  0  0  0  0  0  0  0  0
    2.4023   -0.6796   -0.5793 C   0  0  0  0  0  0  0  0  0  0  0  0
   -1.9644   -1.7206    0.1847 C   0  0  0  0  0  0  0  0  0  0  0  0
    3.8189   -0.6109   -0.2371 N   0  0  0  0  0  0  0  0  0  0  0  0
  1  2  1  0  0  0  0 
  1  3  1  0  0  0  0 
  4  2  1  0  0  0  0 
  2  5  2  0  0  0  0 
  6  4  1  0  0  0  0 
  4  7  2  0  0  0  0 
  5  8  1  0  0  0  0 
  6  9  1  0  0  0  0 
  7 10  1  0  0  0  0 
 10  8  2  0  0  0  0 
 11  9  1  0  0  0  0 
M  END
> <Name>
2-(2-Methoxyphenyl)ethylamine

> <Source>
Chemidplus3DMolFile

> <Tox>
236.5

> <CAS>
2045-79-6

$$$$

  CDK

 13 13  0  0  0  0  0  0  0  0999 V2000
   -1.9471    0.2233   -0.0003 C   0  0  0  0  0  0  0  0  0  0  0  0
   -2.4486   -1.2222   -0.0024 C   0  0  0  0  0  0  0  0  0  0  0  0
   -2.4617    0.9434   -1.2484 C   0  0  0  0  0  0  0  0  0  0  0  0
   -2.4611    0.9396    1.2501 C   0  0  0  0  0  0  0  0  0  0  0  0
   -0.4402    0.2322   -0.0006 C   0  0  0  0  0  0  0  0  0  0  0  0
   -3.9785   -1.2313   -0.0021 C   0  0  0  0  0  0  0  0  0  0  0  0
    0.2428    1.4342    0.0011 C   0  0  0  0  0  0  0  0  0  0  0  0
    0.2572   -0.9619    0.0032 C   0  0  0  0  0  0  0  0  0  0  0  0
    1.6244    1.4451    0.0008 C   0  0  0  0  0  0  0  0  0  0  0  0
    1.6384   -0.9565    0.0039 C   0  0  0  0  0  0  0  0  0  0  0  0
    2.3262    0.2486   -0.0007 C   0  0  0  0  0  0  0  0  0  0  0  0
    3.6852    0.2567   -0.0014 O   0  0  0  0  0  0  0  0  0  0  0  0
    4.1063   -1.1089   -0.0029 C   0  0  0  0  0  0  0  0  0  0  0  0
  1  2  1  0  0  0  0 
  1  3  1  0  0  0  0 
  1  4  1  0  0  0  0 
  1  5  1  0  0  0  0 
  2  6  1  0  0  0  0 
  5  7  2  0  0  0  0 
  5  8  1  0  0  0  0 
  7  9  1  0  0  0  0 
  8 10  2  0  0  0  0 
  9 11  2  0  0  0  0 
 10 11  1  0  0  0  0 
 11 12  1  0  0  0  0 
 12 13  1  0  0  0  0 
M  END
> <Name>
4-(2,2-Dimethylpropyl)anisole

> <Source>
NIH3DMolFile

> <Tox>
238

> <CAS>
2050-03-5

$$$$

  CDK

 15 14  0  0  0  0  0  0  0  0999 V2000
    6.9927    0.0507    0.0000 C   0  0  0  0  0  0  0  0  0  0  0  0
    6.1313    0.5067    0.0000 C   0  0  0  0  0  0  0  0  0  0  0  0
    7.9048    0.5067    0.0000 C   0  0  0  0  0  0  0  0  0  0  0  0
    5.2699    0.0000    0.0000 C   0  0  0  0  0  0  0  0  0  0  0  0
    8.7663    0.0507    0.0000 O   0  0  0  0  0  0  0  0  0  0  0  0
    7.9048    1.4695    0.0000 O   0  0  0  0  0  0  0  0  0  0  0  0
    4.3578    0.5067    0.0000 C   0  0  0  0  0  0  0  0  0  0  0  0
    9.6277    0.5067    0.0000 C   0  0  0  0  0  0  0  0  0  0  0  0
    3.4964    0.0000    0.0000 C   0  0  0  0  0  0  0  0  0  0  0  0
   10.5398    0.0507    0.0000 C   0  0  0  0  0  0  0  0  0  0  0  0
    2.6349    0.5067    0.0000 C   0  0  0  0  0  0  0  0  0  0  0  0
    1.7228    0.0507    0.0000 O   0  0  0  0  0  0  0  0  0  0  0  0
    2.6349    1.5202    0.0000 O   0  0  0  0  0  0  0  0  0  0  0  0
    0.8614    0.5574    0.0000 C   0  0  0  0  0  0  0  0  0  0  0  0
    0.0000    0.0507    0.0000 C   0  0  0  0  0  0  0  0  0  0  0  0
  1  2  1  0  0  0  0 
  1  3  1  0  0  0  0 
  2  4  1  0  0  0  0 
  3  5  1  0  0  0  0 
  3  6  2  0  0  0  0 
  4  7  1  0  0  0  0 
  8  5  1  0  0  0  0 
  7  9  1  0  0  0  0 
  8 10  1  0  0  0  0 
  9 11  1  0  0  0  0 
 11 12  1  0  0  0  0 
 11 13  2  0  0  0  0 
 14 12  1  0  0  0  0 
 14 15  1  0  0  0  0 
M  END
> <Name>
DIETHYL PIMELATE

> <Source>
NIST2DMolFile

> <Tox>
254

> <CAS>
2050-20-6

$$$$

  CDK

 16 15  0  0  0  0  0  0  0  0999 V2000
    0.0000    0.9720    0.0000 C   0  0  0  0  0  0  0  0  0  0  0  0
    0.8697    1.4324    0.0000 C   0  0  0  0  0  0  0  0  0  0  0  0
    1.7905    0.9720    0.0000 O   0  0  0  0  0  0  0  0  0  0  0  0
    2.6601    1.4324    0.0000 C   0  0  0  0  0  0  0  0  0  0  0  0
    3.5810    0.9720    0.0000 C   0  0  0  0  0  0  0  0  0  0  0  0
    2.6601    2.4555    0.0000 O   0  0  0  0  0  0  0  0  0  0  0  0
    4.4506    1.4324    0.0000 C   0  0  0  0  0  0  0  0  0  0  0  0
    5.3715    0.9720    0.0000 C   0  0  0  0  0  0  0  0  0  0  0  0
    6.1900    1.4324    0.0000 C   0  0  0  0  0  0  0  0  0  0  0  0
    7.1108    0.9720    0.0000 C   0  0  0  0  0  0  0  0  0  0  0  0
    7.9804    1.4324    0.0000 C   0  0  0  0  0  0  0  0  0  0  0  0
    8.9013    1.0231    0.0000 C   0  0  0  0  0  0  0  0  0  0  0  0
    9.7709    1.4324    0.0000 O   0  0  0  0  0  0  0  0  0  0  0  0
    8.9013    0.0000    0.0000 O   0  0  0  0  0  0  0  0  0  0  0  0
   10.6918    1.0231    0.0000 C   0  0  0  0  0  0  0  0  0  0  0  0
   11.5614    1.4835    0.0000 C   0  0  0  0  0  0  0  0  0  0  0  0
  1  2  1  0  0  0  0 
  2  3  1  0  0  0  0 
  3  4  1  0  0  0  0 
  4  5  1  0  0  0  0 
  4  6  2  0  0  0  0 
  5  7  1  0  0  0  0 
  7  8  1  0  0  0  0 
  8  9  1  0  0  0  0 
  9 10  1  0  0  0  0 
 11 10  1  0  0  0  0 
 12 11  1  0  0  0  0 
 13 12  1  0  0  0  0 
 12 14  2  0  0  0  0 
 15 13  1  0  0  0  0 
 16 15  1  0  0  0  0 
M  END
> <Name>
DIETHYL SUBERATE

> <Source>
NIST2DMolFile

> <Tox>
282.6

> <CAS>
2050-23-9

$$$$

  CDK

 11 10  0  0  0  0  0  0  0  0999 V2000
    0.7314    4.5631    2.9240 C   0  0  0  0  0  0  0  0  0  0  0  0
    2.0370    4.2225    3.6255 C   0  0  0  0  0  0  0  0  0  0  0  0
    3.0424    3.6636    2.6188 C   0  0  0  0  0  0  0  0  0  0  0  0
    2.5867    5.4531    4.3286 C   0  0  0  0  0  0  0  0  0  0  0  0
    4.2029    2.9451    3.2881 C   0  0  0  0  0  0  0  0  0  0  0  0
    5.1245    2.2832    2.2605 C   0  0  0  0  0  0  0  0  0  0  0  0
    4.3909    1.1103    1.5898 C   0  0  0  0  0  0  0  0  0  0  0  0
    6.4492    1.8182    2.8953 C   0  0  0  0  0  0  0  0  0  0  0  0
    4.9992    0.8537    0.3445 O   0  0  0  0  0  0  0  0  0  0  0  0
    6.2349    0.7933    3.9978 C   0  0  0  0  0  0  0  0  0  0  0  0
    7.2311    3.0113    3.4220 C   0  0  0  0  0  0  0  0  0  0  0  0
  1  2  1  0  0  0  0 
  2  3  1  0  0  0  0 
  2  4  1  0  0  0  0 
  3  5  1  0  0  0  0 
  5  6  1  0  0  0  0 
  7  6  1  0  0  0  0 
  6  8  1  0  0  0  0 
  9  7  1  0  0  0  0 
  8 10  1  0  0  0  0 
  8 11  1  0  0  0  0 
M  END
> <Name>
2-Isopropyl-5-methyl-hexan-1-ol

> <Source>
NIST3DMolFile

> <Tox>
211

> <CAS>
2051-33-4

$$$$

  CDK

 12 13  0  0  0  0  0  0  0  0999 V2000
    1.5442    0.0004   -0.5021 N   0  0  0  0  0  0  0  0  0  0  0  0
    0.3816    0.0006   -1.3962 C   0  0  0  0  0  0  0  0  0  0  0  0
    2.1534   -1.1196   -0.0340 C   0  0  0  0  0  0  0  0  0  0  0  0
    2.1537    1.1198   -0.0331 C   0  0  0  0  0  0  0  0  0  0  0  0
   -0.9029    0.0002   -0.6380 C   0  0  0  0  0  0  0  0  0  0  0  0
    3.1951   -0.7088    0.7682 C   0  0  0  0  0  0  0  0  0  0  0  0
    3.1954    0.7080    0.7686 C   0  0  0  0  0  0  0  0  0  0  0  0
   -1.5037    1.2080   -0.2831 C   0  0  0  0  0  0  0  0  0  0  0  0
   -1.5031   -1.2078   -0.2835 C   0  0  0  0  0  0  0  0  0  0  0  0
   -2.7046    1.2078    0.4264 C   0  0  0  0  0  0  0  0  0  0  0  0
   -2.7042   -1.2083    0.4259 C   0  0  0  0  0  0  0  0  0  0  0  0
   -3.3049   -0.0003    0.7808 C   0  0  0  0  0  0  0  0  0  0  0  0
  1  2  1  0  0  0  0 
  1  3  1  0  0  0  0 
  1  4  1  0  0  0  0 
  2  5  1  0  0  0  0 
  3  6  2  0  0  0  0 
  4  7  2  0  0  0  0 
  5  8  2  0  0  0  0 
  5  9  1  0  0  0  0 
  6  7  1  0  0  0  0 
  8 10  1  0  0  0  0 
  9 11  2  0  0  0  0 
 10 12  2  0  0  0  0 
 11 12  1  0  0  0  0 
M  END
> <Name>
1H-Pyrrole, 1-(phenylmethyl)-

> <Source>
Chemidplus3DMolFile

> <Tox>
247

> <CAS>
2051-97-0

$$$$

  CDK

 14 14  0  0  0  0  0  0  0  0999 V2000
    5.4549    2.4678    2.4633 O   0  0  0  0  0  0  0  0  0  0  0  0
    4.2947    3.1650    2.6357 C   0  0  0  0  0  0  0  0  0  0  0  0
    6.6664    3.2048    2.2876 C   0  0  0  0  0  0  0  0  0  0  0  0
    4.3112    4.3783    2.6646 O   0  0  0  0  0  0  0  0  0  0  0  0
    3.1167    2.2686    2.8034 C   0  0  0  0  0  0  0  0  0  0  0  0
    7.7787    2.1697    2.1384 C   0  0  0  0  0  0  0  0  0  0  0  0
    2.1865    2.0735    1.7681 C   0  0  0  0  0  0  0  0  0  0  0  0
    2.9137    1.6278    4.0249 C   0  0  0  0  0  0  0  0  0  0  0  0
    9.1311    2.8369    1.9383 C   0  0  0  0  0  0  0  0  0  0  0  0
    2.4397    2.6970    0.5801 O   0  0  0  0  0  0  0  0  0  0  0  0
    1.0611    1.2574    1.9663 C   0  0  0  0  0  0  0  0  0  0  0  0
    1.8019    0.8160    4.2169 C   0  0  0  0  0  0  0  0  0  0  0  0
    9.6985    3.4050    3.2204 C   0  0  0  0  0  0  0  0  0  0  0  0
    0.8764    0.6369    3.1940 C   0  0  0  0  0  0  0  0  0  0  0  0
  1  2  1  0  0  0  0 
  1  3  1  0  0  0  0 
  2  4  2  0  0  0  0 
  2  5  1  0  0  0  0 
  3  6  1  0  0  0  0 
  7  5  2  0  0  0  0 
  5  8  1  0  0  0  0 
  6  9  1  0  0  0  0 
  7 10  1  0  0  0  0 
 11  7  1  0  0  0  0 
  8 12  2  0  0  0  0 
  9 13  1  0  0  0  0 
 14 11  2  0  0  0  0 
 12 14  1  0  0  0  0 
M  END
> <Name>
BENZOIC ACID, 2-HYDROXY-, BUTYL ESTER

> <Source>
NIST3DMolFile

> <Tox>
271

> <CAS>
2052-14-4

$$$$

  CDK

 11 11  0  0  0  0  0  0  0  0999 V2000
    3.6380    4.1977    0.0000 C   0  0  0  0  0  0  0  0  0  0  0  0
    2.4253    3.4981    0.0000 C   0  0  0  0  0  0  0  0  0  0  0  0
    4.8506    3.4981    0.0000 C   0  0  0  0  0  0  0  0  0  0  0  0
    2.4253    2.0988    0.0000 C   0  0  0  0  0  0  0  0  0  0  0  0
    4.8506    2.0988    0.0000 C   0  0  0  0  0  0  0  0  0  0  0  0
    6.0633    4.1977    0.0000 C   0  0  0  0  0  0  0  0  0  0  0  0
    3.6380    1.3992    0.0000 C   0  0  0  0  0  0  0  0  0  0  0  0
    1.2127    1.3992    0.0000 C   0  0  0  0  0  0  0  0  0  0  0  0
    7.2760    3.4981    0.0000 C   0  0  0  0  0  0  0  0  0  0  0  0
    0.0000    2.0988    0.0000 C   0  0  0  0  0  0  0  0  0  0  0  0
    1.2127    0.0000    0.0000 C   0  0  0  0  0  0  0  0  0  0  0  0
  1  2  2  0  0  0  0 
  1  3  1  0  0  0  0 
  2  4  1  0  0  0  0 
  5  3  2  0  0  0  0 
  3  6  1  0  0  0  0 
  4  7  2  0  0  0  0 
  4  8  1  0  0  0  0 
  7  5  1  0  0  0  0 
  6  9  2  0  0  0  0 
  8 10  1  0  0  0  0 
  8 11  1  0  0  0  0 
M  END
> <Name>
1-Isopropyl-4-vinylbenzene

> <Source>
IndexNet2DMolFile

> <Tox>
204.1

> <CAS>
2055-40-5

$$$$

  CDK

 12 13  0  0  0  0  0  0  0  0999 V2000
    4.1858    0.5409   -0.0009 Cl  0  0  0  0  0  0  0  0  0  0  0  0
    2.5291    0.0748    0.0002 C   0  0  0  0  0  0  0  0  0  0  0  0
    1.5309    1.0495    0.0003 C   0  0  0  0  0  0  0  0  0  0  0  0
    2.1862   -1.2739    0.0002 C   0  0  0  0  0  0  0  0  0  0  0  0
    0.1744    0.6858    0.0002 C   0  0  0  0  0  0  0  0  0  0  0  0
    0.8436   -1.6533    0.0002 C   0  0  0  0  0  0  0  0  0  0  0  0
   -0.1744   -0.6857    0.0002 C   0  0  0  0  0  0  0  0  0  0  0  0
   -0.8437    1.6534    0.0002 C   0  0  0  0  0  0  0  0  0  0  0  0
   -1.5308   -1.0495    0.0001 C   0  0  0  0  0  0  0  0  0  0  0  0
   -2.1861    1.2739    0.0001 C   0  0  0  0  0  0  0  0  0  0  0  0
   -2.5290   -0.0749    0.0001 C   0  0  0  0  0  0  0  0  0  0  0  0
   -4.1860   -0.5409   -0.0008 Cl  0  0  0  0  0  0  0  0  0  0  0  0
  1  2  1  0  0  0  0 
  3  2  2  0  0  0  0 
  2  4  1  0  0  0  0 
  5  3  1  0  0  0  0 
  6  4  2  0  0  0  0 
  5  7  2  0  0  0  0 
  5  8  1  0  0  0  0 
  7  6  1  0  0  0  0 
  7  9  1  0  0  0  0 
  8 10  2  0  0  0  0 
  9 11  2  0  0  0  0 
 11 10  1  0  0  0  0 
 12 11  1  0  0  0  0 
M  END
> <Name>
2,6-DICHLORONAPHTHALENE

> <Source>
Chemidplus3DMolFile

> <Tox>
285

> <CAS>
2065-70-5

$$$$

  CDK

 10 10  0  0  0  0  0  0  0  0999 V2000
    0.0000    0.0000    0.0000 S   0  0  0  0  0  0  0  0  0  0  0  0
    1.0200   -1.3200    0.2200 C   0  0  0  0  0  0  0  0  0  0  0  0
    1.8000   -2.3200    0.3800 N   0  0  0  0  0  0  0  0  0  0  0  0
    3.1600   -2.1400    0.4600 C   0  0  0  0  0  0  0  0  0  0  0  0
    4.0200   -3.2400    0.6200 C   0  0  0  0  0  0  0  0  0  0  0  0
    3.7000   -0.8400    0.3600 C   0  0  0  0  0  0  0  0  0  0  0  0
    5.4000   -3.0400    0.7200 C   0  0  0  0  0  0  0  0  0  0  0  0
    5.0800   -0.6600    0.4600 C   0  0  0  0  0  0  0  0  0  0  0  0
    5.9400   -1.7600    0.6200 C   0  0  0  0  0  0  0  0  0  0  0  0
    7.6400   -1.5200    0.7400 Cl  0  0  0  0  0  0  0  0  0  0  0  0
  1  2  2  0  0  0  0 
  2  3  2  0  0  0  0 
  3  4  1  0  0  0  0 
  4  5  2  0  0  0  0 
  4  6  1  0  0  0  0 
  5  7  1  0  0  0  0 
  8  6  2  0  0  0  0 
  7  9  2  0  0  0  0 
  9  8  1  0  0  0  0 
  9 10  1  0  0  0  0 
M  END
> <Name>
BENZENE, 1-CHLORO-4-ISOTHIOCYANATO-

> <Source>
NIH3DMolFile

> <Tox>
249.5

> <CAS>
2131-55-7

$$$$

  CDK

  8  7  0  0  0  0  0  0  0  0999 V2000
    1.3992    3.6380    0.0000 C   0  0  0  0  0  0  0  0  0  0  0  0
    0.0000    3.6380    0.0000 Cl  0  0  0  0  0  0  0  0  0  0  0  0
    2.0988    2.4253    0.0000 C   0  0  0  0  0  0  0  0  0  0  0  0
    1.3992    1.2127    0.0000 Cl  0  0  0  0  0  0  0  0  0  0  0  0
    3.4981    2.4253    0.0000 C   0  0  0  0  0  0  0  0  0  0  0  0
    4.1977    1.2127    0.0000 C   0  0  0  0  0  0  0  0  0  0  0  0
    5.5969    1.2127    0.0000 C   0  0  0  0  0  0  0  0  0  0  0  0
    6.2965    0.0000    0.0000 C   0  0  0  0  0  0  0  0  0  0  0  0
  1  2  1  0  0  0  0 
  1  3  1  0  0  0  0 
  3  4  1  0  0  0  0 
  3  5  1  0  0  0  0 
  5  6  1  0  0  0  0 
  6  7  1  0  0  0  0 
  7  8  1  0  0  0  0 
M  END
> <Name>
1,2-DICHLOROHEXANE

> <Source>
IndexNet2DMolFile

> <Tox>
173

> <CAS>
2162-92-7

$$$$

  CDK

 10  9  0  0  0  0  0  0  0  0999 V2000
    0.0000    0.0513    0.0000 Cl  0  0  0  0  0  0  0  0  0  0  0  0
    0.8724    0.5132    0.0000 C   0  0  0  0  0  0  0  0  0  0  0  0
    1.7961    0.0513    0.0000 C   0  0  0  0  0  0  0  0  0  0  0  0
    2.6684    0.5132    0.0000 C   0  0  0  0  0  0  0  0  0  0  0  0
    3.5408    0.0513    0.0000 C   0  0  0  0  0  0  0  0  0  0  0  0
    4.4132    0.5132    0.0000 C   0  0  0  0  0  0  0  0  0  0  0  0
    5.2855    0.0000    0.0000 C   0  0  0  0  0  0  0  0  0  0  0  0
    6.1579    0.4618    0.0000 C   0  0  0  0  0  0  0  0  0  0  0  0
    7.0816    0.0000    0.0000 C   0  0  0  0  0  0  0  0  0  0  0  0
    7.9539    0.4618    0.0000 Cl  0  0  0  0  0  0  0  0  0  0  0  0
  1  2  1  0  0  0  0 
  2  3  1  0  0  0  0 
  3  4  1  0  0  0  0 
  4  5  1  0  0  0  0 
  5  6  1  0  0  0  0 
  6  7  1  0  0  0  0 
  7  8  1  0  0  0  0 
  8  9  1  0  0  0  0 
  9 10  1  0  0  0  0 
M  END
> <Name>
Octane, 1,8-dichloro-

> <Source>
NIST2DMolFile

> <Tox>
241

> <CAS>
2162-99-4

$$$$

  CDK

 14 13  0  0  0  0  0  0  0  0999 V2000
    3.9009    2.3156    1.3124 C   0  0  0  0  0  0  0  0  0  0  0  0
    4.3898    3.6392    1.8936 C   0  0  0  0  0  0  0  0  0  0  0  0
    2.5928    2.0755    1.6160 O   0  0  0  0  0  0  0  0  0  0  0  0
    4.5271    1.4985    0.6710 O   0  0  0  0  0  0  0  0  0  0  0  0
    3.6799    4.7913    1.1872 C   0  0  0  0  0  0  0  0  0  0  0  0
    5.9065    3.7844    1.7525 C   0  0  0  0  0  0  0  0  0  0  0  0
    1.9840    0.8834    1.1129 C   0  0  0  0  0  0  0  0  0  0  0  0
    2.9983    5.5889    2.0559 O   0  0  0  0  0  0  0  0  0  0  0  0
    3.6747    5.0461    0.0000 O   0  0  0  0  0  0  0  0  0  0  0  0
    6.4444    4.9354    2.5886 C   0  0  0  0  0  0  0  0  0  0  0  0
    0.5414    0.9115    1.5796 C   0  0  0  0  0  0  0  0  0  0  0  0
    2.2838    6.7122    1.5333 C   0  0  0  0  0  0  0  0  0  0  0  0
    7.9428    5.0658    2.4333 C   0  0  0  0  0  0  0  0  0  0  0  0
    1.6487    7.4055    2.7231 C   0  0  0  0  0  0  0  0  0  0  0  0
  1  2  1  0  0  0  0 
  1  3  1  0  0  0  0 
  1  4  2  0  0  0  0 
  2  5  1  0  0  0  0 
  2  6  1  0  0  0  0 
  3  7  1  0  0  0  0 
  5  8  1  0  0  0  0 
  5  9  2  0  0  0  0 
  6 10  1  0  0  0  0 
  7 11  1  0  0  0  0 
  8 12  1  0  0  0  0 
 10 13  1  0  0  0  0 
 12 14  1  0  0  0  0 
M  END
> <Name>
PROPANEDIOIC ACID, PROPYL-, DIETHYL ESTER

> <Source>
NIST3DMolFile

> <Tox>
221

> <CAS>
2163-48-6

$$$$

  CDK

 12 11  0  0  0  0  0  0  0  0999 V2000
    0.0000    0.9551    0.0000 C   0  0  0  0  0  0  0  0  0  0  0  0
    0.9048    1.4577    0.0000 C   0  0  0  0  0  0  0  0  0  0  0  0
    1.7593    0.9551    0.0000 C   0  0  0  0  0  0  0  0  0  0  0  0
    2.6138    1.4577    0.0000 C   0  0  0  0  0  0  0  0  0  0  0  0
    3.4684    0.9551    0.0000 C   0  0  0  0  0  0  0  0  0  0  0  0
    3.4684    0.0000    0.0000 O   0  0  0  0  0  0  0  0  0  0  0  0
    4.3229    1.4577    0.0000 O   0  0  0  0  0  0  0  0  0  0  0  0
    5.1774    0.9551    0.0000 C   0  0  0  0  0  0  0  0  0  0  0  0
    6.0822    1.4577    0.0000 C   0  0  0  0  0  0  0  0  0  0  0  0
    6.9367    0.9551    0.0000 C   0  0  0  0  0  0  0  0  0  0  0  0
    7.7912    1.4577    0.0000 C   0  0  0  0  0  0  0  0  0  0  0  0
    8.6960    0.9551    0.0000 C   0  0  0  0  0  0  0  0  0  0  0  0
  1  2  1  0  0  0  0 
  2  3  1  0  0  0  0 
  3  4  1  0  0  0  0 
  4  5  1  0  0  0  0 
  5  6  2  0  0  0  0 
  5  7  1  0  0  0  0 
  7  8  1  0  0  0  0 
  8  9  1  0  0  0  0 
  9 10  1  0  0  0  0 
 10 11  1  0  0  0  0 
 11 12  1  0  0  0  0 
M  END
> <Name>
Pentanoic acid, pentyl ester

> <Source>
NIST2DMolFile

> <Tox>
203.7

> <CAS>
2173-56-0

$$$$

  CDK

 11 10  0  0  0  0  0  0  0  0999 V2000
    1.4490    1.7488    0.0000 O   0  0  0  0  0  0  0  0  0  0  0  0
    0.9993    0.8994    0.0000 C   0  0  0  0  0  0  0  0  0  0  0  0
    2.4483    1.7488    0.0000 Si  0  0  0  0  0  0  0  0  0  0  0  0
    0.0000    0.8994    0.0000 C   0  0  0  0  0  0  0  0  0  0  0  0
    1.4989    0.0000    0.0000 O   0  0  0  0  0  0  0  0  0  0  0  0
    3.4476    1.7488    0.0000 O   0  0  0  0  0  0  0  0  0  0  0  0
    2.4483    2.7481    0.0000 C   0  0  0  0  0  0  0  0  0  0  0  0
    2.4483    0.7495    0.0000 C   0  0  0  0  0  0  0  0  0  0  0  0
    3.9472    2.6481    0.0000 C   0  0  0  0  0  0  0  0  0  0  0  0
    4.9465    2.6481    0.0000 C   0  0  0  0  0  0  0  0  0  0  0  0
    3.4476    3.4975    0.0000 O   0  0  0  0  0  0  0  0  0  0  0  0
  1  2  1  0  0  0  0 
  1  3  1  0  0  0  0 
  2  4  1  0  0  0  0 
  2  5  2  0  0  0  0 
  3  6  1  0  0  0  0 
  3  7  1  0  0  0  0 
  3  8  1  0  0  0  0 
  6  9  1  0  0  0  0 
  9 10  1  0  0  0  0 
  9 11  2  0  0  0  0 
M  END
> <Name>
Silanediol, dimethyl-, diacetate

> <Source>
NIST2DMolFile

> <Tox>
165

> <CAS>
2182-66-3

$$$$

  CDK

 14 14  0  0  0  0  0  0  0  0999 V2000
    2.2511    5.8455    2.0555 C   0  0  0  0  0  0  0  0  0  0  0  0
    1.0538    5.1394    1.4317 C   0  0  0  0  0  0  0  0  0  0  0  0
    3.5631    5.3985    1.4329 C   0  0  0  0  0  0  0  0  0  0  0  0
    0.9596    3.7095    1.8584 C   0  0  0  0  0  0  0  0  0  0  0  0
    4.7541    6.0479    2.1188 C   0  0  0  0  0  0  0  0  0  0  0  0
    1.3491    2.6839    0.9963 C   0  0  0  0  0  0  0  0  0  0  0  0
    0.4745    3.3920    3.1288 C   0  0  0  0  0  0  0  0  0  0  0  0
    6.0885    5.6116    1.5283 C   0  0  0  0  0  0  0  0  0  0  0  0
    1.2484    1.3565    1.3984 C   0  0  0  0  0  0  0  0  0  0  0  0
    0.3797    2.0645    3.5296 C   0  0  0  0  0  0  0  0  0  0  0  0
    6.6031    4.2862    2.0741 C   0  0  0  0  0  0  0  0  0  0  0  0
    0.7634    1.0453    2.6638 C   0  0  0  0  0  0  0  0  0  0  0  0
    6.0121    3.0792    1.3627 C   0  0  0  0  0  0  0  0  0  0  0  0
    6.5341    1.7843    1.9419 C   0  0  0  0  0  0  0  0  0  0  0  0
  1  2  1  0  0  0  0 
  1  3  1  0  0  0  0 
  2  4  1  0  0  0  0 
  3  5  1  0  0  0  0 
  4  6  2  0  0  0  0 
  7  4  1  0  0  0  0 
  5  8  1  0  0  0  0 
  6  9  1  0  0  0  0 
 10  7  2  0  0  0  0 
  8 11  1  0  0  0  0 
  9 12  2  0  0  0  0 
 12 10  1  0  0  0  0 
 11 13  1  0  0  0  0 
 13 14  1  0  0  0  0 
M  END
> <Name>
OCTYLBENZENE

> <Source>
NIST3DMolFile

> <Tox>
264.5

> <CAS>
2189-60-8

$$$$

  CDK

 13 12  0  0  0  0  0  0  0  0999 V2000
    0.0000    0.0000    0.0000 C   0  0  0  0  0  0  0  0  0  0  0  0
    0.9038    0.5021    0.0000 C   0  0  0  0  0  0  0  0  0  0  0  0
    1.7575    0.0000    0.0000 C   0  0  0  0  0  0  0  0  0  0  0  0
    2.5609    0.5021    0.0000 C   0  0  0  0  0  0  0  0  0  0  0  0
    3.4647    0.0000    0.0000 C   0  0  0  0  0  0  0  0  0  0  0  0
    4.3183    0.5021    0.0000 C   0  0  0  0  0  0  0  0  0  0  0  0
    5.1720    0.0000    0.0000 O   0  0  0  0  0  0  0  0  0  0  0  0
    4.3183    1.5064    0.0000 O   0  0  0  0  0  0  0  0  0  0  0  0
    6.0256    0.5021    0.0000 C   0  0  0  0  0  0  0  0  0  0  0  0
    6.9294    0.0000    0.0000 C   0  0  0  0  0  0  0  0  0  0  0  0
    7.7831    0.5021    0.0000 C   0  0  0  0  0  0  0  0  0  0  0  0
    8.6367    0.0000    0.0000 C   0  0  0  0  0  0  0  0  0  0  0  0
    7.7831    1.5064    0.0000 C   0  0  0  0  0  0  0  0  0  0  0  0
  1  2  1  0  0  0  0 
  2  3  1  0  0  0  0 
  3  4  1  0  0  0  0 
  4  5  1  0  0  0  0 
  5  6  1  0  0  0  0 
  6  7  1  0  0  0  0 
  6  8  2  0  0  0  0 
  7  9  1  0  0  0  0 
  9 10  1  0  0  0  0 
 10 11  1  0  0  0  0 
 11 12  1  0  0  0  0 
 11 13  1  0  0  0  0 
M  END
> <Name>
Hexanoic acid, 3-methylbutyl ester

> <Source>
NIST2DMolFile

> <Tox>
225.5

> <CAS>
2198-61-0

$$$$

  CDK

 13 13  0  0  0  0  0  0  0  0999 V2000
    0.0000    0.0000    0.0000 C   0  0  0  0  0  0  0  0  0  0  0  0
    0.0600   -0.3600   -1.3600 O   0  0  0  0  0  0  0  0  0  0  0  0
    0.5400    0.6800   -2.2000 C   0  0  0  0  0  0  0  0  0  0  0  0
    0.5000    0.2800   -3.5400 O   0  0  0  0  0  0  0  0  0  0  0  0
    1.9200    1.1000   -1.7800 C   0  0  0  0  0  0  0  0  0  0  0  0
   -0.2600    1.9400   -1.9800 C   0  0  0  0  0  0  0  0  0  0  0  0
    1.0200   -1.0200   -3.7600 C   0  0  0  0  0  0  0  0  0  0  0  0
    3.2800    0.0200   -1.8200 Cl  0  0  0  0  0  0  0  0  0  0  0  0
    1.9200    2.4000   -1.4000 C   0  0  0  0  0  0  0  0  0  0  0  0
    0.5600    2.9200   -1.5200 C   0  0  0  0  0  0  0  0  0  0  0  0
   -1.9600    2.0600   -2.3000 Cl  0  0  0  0  0  0  0  0  0  0  0  0
    3.3000    3.3000   -0.8600 Cl  0  0  0  0  0  0  0  0  0  0  0  0
    0.0600    4.5400   -1.1600 Cl  0  0  0  0  0  0  0  0  0  0  0  0
  1  2  1  0  0  0  0 
  2  3  1  0  0  0  0 
  3  4  1  0  0  0  0 
  3  5  1  0  0  0  0 
  3  6  1  0  0  0  0 
  4  7  1  0  0  0  0 
  8  5  1  0  0  0  0 
  5  9  2  0  0  0  0 
 10  6  2  0  0  0  0 
  6 11  1  0  0  0  0 
 12  9  1  0  0  0  0 
  9 10  1  0  0  0  0 
 10 13  1  0  0  0  0 
M  END
> <Name>
1,2,3,4-Tetrachloro-5,5-dimethoxy-1,3-cyclopenta

> <Source>
NIH3DMolFile

> <Tox>
109

> <CAS>
2207-27-4

$$$$

  CDK

  9  8  0  0  0  0  0  0  0  0999 V2000
    3.9855    2.0115    2.6006 C   0  0  0  0  0  0  0  0  0  0  0  0
    3.3323    2.0789    3.9826 C   0  0  0  0  0  0  0  0  0  0  0  0
    5.4293    1.5372    2.6812 C   0  0  0  0  0  0  0  0  0  0  0  0
    1.8360    2.3649    3.8415 C   0  0  0  0  0  0  0  0  0  0  0  0
    4.0187    3.1332    4.8376 C   0  0  0  0  0  0  0  0  0  0  0  0
    6.1612    1.7286    1.3528 C   0  0  0  0  0  0  0  0  0  0  0  0
    1.0722    2.1006    5.1198 C   0  0  0  0  0  0  0  0  0  0  0  0
    7.5334    1.0787    1.4063 C   0  0  0  0  0  0  0  0  0  0  0  0
    6.2857    3.2061    1.0165 C   0  0  0  0  0  0  0  0  0  0  0  0
  1  2  1  0  0  0  0 
  1  3  1  0  0  0  0 
  2  4  1  0  0  0  0 
  2  5  1  0  0  0  0 
  3  6  1  0  0  0  0 
  4  7  1  0  0  0  0 
  6  8  1  0  0  0  0 
  6  9  1  0  0  0  0 
M  END
> <Name>
HEPTANE, 2,5-DIMETHYL-

> <Source>
NIST3DMolFile

> <Tox>
136

> <CAS>
2216-30-0

$$$$

  CDK

 12 13  0  0  0  0  0  0  0  0999 V2000
    2.0870    1.2209    0.2956 N   0  0  0  0  0  0  0  0  0  0  0  0
    1.2116    0.0981    0.1049 C   0  0  0  0  0  0  0  0  0  0  0  0
    3.4245    1.1352   -0.3157 C   0  0  0  0  0  0  0  0  0  0  0  0
    1.7240   -1.1847    0.0788 C   0  0  0  0  0  0  0  0  0  0  0  0
   -0.2077    0.3005    0.0459 C   0  0  0  0  0  0  0  0  0  0  0  0
    0.8661   -2.3001    0.0118 C   0  0  0  0  0  0  0  0  0  0  0  0
   -1.0513   -0.8287   -0.0163 C   0  0  0  0  0  0  0  0  0  0  0  0
   -0.7970    1.5945    0.0399 C   0  0  0  0  0  0  0  0  0  0  0  0
   -0.4917   -2.1337   -0.0305 C   0  0  0  0  0  0  0  0  0  0  0  0
   -2.4607   -0.6463   -0.0677 C   0  0  0  0  0  0  0  0  0  0  0  0
   -2.1559    1.7447   -0.0121 C   0  0  0  0  0  0  0  0  0  0  0  0
   -2.9988    0.6112   -0.0634 C   0  0  0  0  0  0  0  0  0  0  0  0
  1  2  1  0  0  0  0 
  1  3  1  0  0  0  0 
  2  4  1  0  0  0  0 
  2  5  2  0  0  0  0 
  4  6  2  0  0  0  0 
  7  5  1  0  0  0  0 
  8  5  1  0  0  0  0 
  6  9  1  0  0  0  0 
  9  7  2  0  0  0  0 
  7 10  1  0  0  0  0 
 11  8  2  0  0  0  0 
 10 12  2  0  0  0  0 
 12 11  1  0  0  0  0 
M  END
> <Name>
1-NAPHTHALENAMINE, N-METHYL-

> <Source>
DougDB3DMolFile

> <Tox>
294.5

> <CAS>
2216-68-4

$$$$

  CDK

 13 13  0  0  0  0  0  0  0  0999 V2000
    0.0000    0.0000    0.0000 C   0  0  0  0  0  0  0  0  0  0  0  0
    1.3600    0.1200    0.6800 C   0  0  0  0  0  0  0  0  0  0  0  0
    1.9400   -1.2400    1.1000 C   0  0  0  0  0  0  0  0  0  0  0  0
    2.1200   -2.1000   -0.0800 N   0  0  0  0  0  0  0  0  0  0  0  0
    2.9600   -1.6400   -1.1800 C   0  0  0  0  0  0  0  0  0  0  0  0
    1.5200   -3.3400   -0.1200 C   0  0  0  0  0  0  0  0  0  0  0  0
    4.2400   -2.4400   -1.3000 C   0  0  0  0  0  0  0  0  0  0  0  0
    1.3200   -4.0600    1.0600 C   0  0  0  0  0  0  0  0  0  0  0  0
    1.1000   -3.8800   -1.3600 C   0  0  0  0  0  0  0  0  0  0  0  0
    5.1200   -2.3200   -0.0400 C   0  0  0  0  0  0  0  0  0  0  0  0
    0.7000   -5.3200    1.0200 C   0  0  0  0  0  0  0  0  0  0  0  0
    0.4800   -5.1400   -1.4000 C   0  0  0  0  0  0  0  0  0  0  0  0
    0.2800   -5.8600   -0.2200 C   0  0  0  0  0  0  0  0  0  0  0  0
  1  2  1  0  0  0  0 
  2  3  1  0  0  0  0 
  3  4  1  0  0  0  0 
  4  5  1  0  0  0  0 
  4  6  1  0  0  0  0 
  5  7  1  0  0  0  0 
  6  8  2  0  0  0  0 
  6  9  1  0  0  0  0 
  7 10  1  0  0  0  0 
  8 11  1  0  0  0  0 
 12  9  2  0  0  0  0 
 11 13  2  0  0  0  0 
 13 12  1  0  0  0  0 
M  END
> <Name>
Benzenamine, N,N-dipropyl-

> <Source>
NIH3DMolFile

> <Tox>
242

> <CAS>
2217-07-4

$$$$

  CDK

 12 12  0  0  0  0  0  0  0  0999 V2000
    1.6597    3.1422    2.0165 C   0  0  0  0  0  0  0  0  0  0  0  0
    1.0668    1.9424    2.7628 C   0  0  0  0  0  0  0  0  0  0  0  0
    1.1952    4.3960    2.7716 C   0  0  0  0  0  0  0  0  0  0  0  0
    1.0975    3.2091    0.5945 C   0  0  0  0  0  0  0  0  0  0  0  0
    3.1769    3.0561    1.9370 C   0  0  0  0  0  0  0  0  0  0  0  0
    3.8704    1.9087    1.4855 C   0  0  0  0  0  0  0  0  0  0  0  0
    3.9469    4.1659    2.2900 C   0  0  0  0  0  0  0  0  0  0  0  0
    3.1249    0.8325    1.0849 O   0  0  0  0  0  0  0  0  0  0  0  0
    5.2792    1.8753    1.4418 C   0  0  0  0  0  0  0  0  0  0  0  0
    5.3355    4.1473    2.2387 C   0  0  0  0  0  0  0  0  0  0  0  0
    6.0308    0.6671    1.0055 C   0  0  0  0  0  0  0  0  0  0  0  0
    6.0009    3.0039    1.8264 C   0  0  0  0  0  0  0  0  0  0  0  0
  1  2  1  0  0  0  0 
  1  3  1  0  0  0  0 
  1  4  1  0  0  0  0 
  1  5  1  0  0  0  0 
  6  5  2  0  0  0  0 
  5  7  1  0  0  0  0 
  6  8  1  0  0  0  0 
  9  6  1  0  0  0  0 
  7 10  2  0  0  0  0 
  9 11  1  0  0  0  0 
 12  9  2  0  0  0  0 
 10 12  1  0  0  0  0 
M  END
> <Name>
Phenol, 2-(1,1-dimethylethyl)-6-methyl-

> <Source>
NIST3DMolFile

> <Tox>
230

> <CAS>
2219-82-1

$$$$

  CDK

  6  5  0  0  0  0  0  0  0  0999 V2000
   -3.0315    0.1801    0.0000 C   0  0  0  0  0  0  0  0  0  0  0  0
   -1.8469   -0.4289    0.0000 C   0  0  0  0  0  0  0  0  0  0  0  0
   -0.5950    0.3100    0.0000 C   0  0  0  0  0  0  0  0  0  0  0  0
    0.5950   -0.3095    0.0000 C   0  0  0  0  0  0  0  0  0  0  0  0
    1.8471    0.4291    0.0000 C   0  0  0  0  0  0  0  0  0  0  0  0
    3.0314   -0.1806    0.0000 C   0  0  0  0  0  0  0  0  0  0  0  0
  1  2  2  0  0  0  0 
  2  3  1  0  0  0  0 
  3  4  2  0  0  0  0 
  4  5  1  0  0  0  0 
  5  6  2  0  0  0  0 
M  END
> <Name>
1,3,5-HEXATRIENE

> <Source>
DougDB3DMolFile

> <Tox>
77.5

> <CAS>
2235-12-3

$$$$

  CDK

 13 13  0  0  0  0  0  0  0  0999 V2000
    1.7434    1.4944    0.0000 C   0  0  0  0  0  0  0  0  0  0  0  0
    1.7434    0.4981    0.0000 C   0  0  0  0  0  0  0  0  0  0  0  0
    0.8966    1.9925    0.0000 C   0  0  0  0  0  0  0  0  0  0  0  0
    2.5902    1.9925    0.0000 C   0  0  0  0  0  0  0  0  0  0  0  0
    0.8966    0.0000    0.0000 C   0  0  0  0  0  0  0  0  0  0  0  0
    0.0000    1.4944    0.0000 C   0  0  0  0  0  0  0  0  0  0  0  0
    2.5902    2.9887    0.0000 O   0  0  0  0  0  0  0  0  0  0  0  0
    3.4869    1.4944    0.0000 C   0  0  0  0  0  0  0  0  0  0  0  0
    0.0000    0.4981    0.0000 C   0  0  0  0  0  0  0  0  0  0  0  0
    4.3337    1.9925    0.0000 O   0  0  0  0  0  0  0  0  0  0  0  0
    5.1805    1.4944    0.0000 C   0  0  0  0  0  0  0  0  0  0  0  0
    6.0771    1.9925    0.0000 O   0  0  0  0  0  0  0  0  0  0  0  0
    5.1805    0.4981    0.0000 C   0  0  0  0  0  0  0  0  0  0  0  0
  1  2  2  0  0  0  0 
  3  1  1  0  0  0  0 
  1  4  1  0  0  0  0 
  2  5  1  0  0  0  0 
  6  3  2  0  0  0  0 
  4  7  2  0  0  0  0 
  4  8  1  0  0  0  0 
  5  9  2  0  0  0  0 
  9  6  1  0  0  0  0 
  8 10  1  0  0  0  0 
 10 11  1  0  0  0  0 
 11 12  2  0  0  0  0 
 11 13  1  0  0  0  0 
M  END
> <Name>
Ethanone, 2-(acetyloxy)-1-phenyl-

> <Source>
NIST2DMolFile

> <Tox>
270

> <CAS>
2243-35-8

$$$$

  CDK

 11 12  0  0  0  0  0  0  0  0999 V2000
    0.0000    0.0000    0.0000 C   0  0  0  0  0  0  0  0  0  0  0  0
    0.4400    1.3800    0.1400 N   0  0  0  0  0  0  0  0  0  0  0  0
    1.8400    1.8200    0.2600 C   0  0  0  0  0  0  0  0  0  0  0  0
   -0.4000    2.5200    0.1600 C   0  0  0  0  0  0  0  0  0  0  0  0
    1.8600    3.2000    0.3800 C   0  0  0  0  0  0  0  0  0  0  0  0
    2.9800    1.0000    0.2600 C   0  0  0  0  0  0  0  0  0  0  0  0
    0.4000    4.0200    0.3400 S   0  0  0  0  0  0  0  0  0  0  0  0
   -2.0800    2.4400    0.0600 S   0  0  0  0  0  0  0  0  0  0  0  0
    3.1000    3.8600    0.5000 C   0  0  0  0  0  0  0  0  0  0  0  0
    4.2200    1.6600    0.4000 C   0  0  0  0  0  0  0  0  0  0  0  0
    4.2800    3.0800    0.5200 C   0  0  0  0  0  0  0  0  0  0  0  0
  1  2  1  0  0  0  0 
  2  3  1  0  0  0  0 
  2  4  1  0  0  0  0 
  3  5  2  0  0  0  0 
  3  6  1  0  0  0  0 
  7  4  1  0  0  0  0 
  4  8  2  0  0  0  0 
  5  9  1  0  0  0  0 
  5  7  1  0  0  0  0 
 10  6  2  0  0  0  0 
  9 11  2  0  0  0  0 
 11 10  1  0  0  0  0 
M  END
> <Name>
2(3H)-BENZOTHIAZOLETHIONE, 3-METHYL-

> <Source>
NIH3DMolFile

> <Tox>
335

> <CAS>
2254-94-6

$$$$

  CDK

 18 17  0  0  0  0  0  0  0  0999 V2000
    1.7675    0.0505    0.0000 C   0  0  0  0  0  0  0  0  0  0  0  0
    2.6259    0.5555    0.0000 C   0  0  0  0  0  0  0  0  0  0  0  0
    0.8585    0.5555    0.0000 C   0  0  0  0  0  0  0  0  0  0  0  0
    3.4844    0.0505    0.0000 C   0  0  0  0  0  0  0  0  0  0  0  0
    0.0000    0.0505    0.0000 C   0  0  0  0  0  0  0  0  0  0  0  0
    4.4439    0.5050    0.0000 C   0  0  0  0  0  0  0  0  0  0  0  0
    5.3024    0.0000    0.0000 C   0  0  0  0  0  0  0  0  0  0  0  0
    6.1609    0.5555    0.0000 C   0  0  0  0  0  0  0  0  0  0  0  0
    7.0193    0.0000    0.0000 O   0  0  0  0  0  0  0  0  0  0  0  0
    6.1609    1.5150    0.0000 O   0  0  0  0  0  0  0  0  0  0  0  0
    7.8778    0.5050    0.0000 C   0  0  0  0  0  0  0  0  0  0  0  0
    8.7363    0.0000    0.0000 C   0  0  0  0  0  0  0  0  0  0  0  0
    9.6453    0.4545    0.0000 C   0  0  0  0  0  0  0  0  0  0  0  0
   10.5038    0.0000    0.0000 C   0  0  0  0  0  0  0  0  0  0  0  0
   11.3622    0.4545    0.0000 C   0  0  0  0  0  0  0  0  0  0  0  0
   12.2207    0.0000    0.0000 C   0  0  0  0  0  0  0  0  0  0  0  0
   13.1297    0.4545    0.0000 C   0  0  0  0  0  0  0  0  0  0  0  0
   13.9882    0.0000    0.0000 C   0  0  0  0  0  0  0  0  0  0  0  0
  1  2  1  0  0  0  0 
  1  3  1  0  0  0  0 
  2  4  1  0  0  0  0 
  3  5  1  0  0  0  0 
  6  4  1  0  0  0  0 
  7  6  1  0  0  0  0 
  7  8  1  0  0  0  0 
  8  9  1  0  0  0  0 
  8 10  2  0  0  0  0 
  9 11  1  0  0  0  0 
 11 12  1  0  0  0  0 
 12 13  1  0  0  0  0 
 13 14  1  0  0  0  0 
 15 14  1  0  0  0  0 
 16 15  1  0  0  0  0 
 17 16  1  0  0  0  0 
 18 17  1  0  0  0  0 
M  END
> <Name>
Octanoic acid, octyl ester

> <Source>
NIST2DMolFile

> <Tox>
306.8

> <CAS>
2306-88-9

$$$$

  CDK

 12 12  0  0  0  0  0  0  0  0999 V2000
    0.0000    0.0000    0.0000 C   0  0  0  0  0  0  0  0  0  0  0  0
    1.0200    0.7200   -0.6400 O   0  0  0  0  0  0  0  0  0  0  0  0
    1.2600    1.9600   -0.2400 C   0  0  0  0  0  0  0  0  0  0  0  0
    2.5800    2.4200   -0.1400 C   0  0  0  0  0  0  0  0  0  0  0  0
    0.2000    2.8000    0.1000 C   0  0  0  0  0  0  0  0  0  0  0  0
    2.8400    3.7200    0.3000 C   0  0  0  0  0  0  0  0  0  0  0  0
    3.6000    1.6200   -0.4400 F   0  0  0  0  0  0  0  0  0  0  0  0
    0.4400    4.1200    0.5200 C   0  0  0  0  0  0  0  0  0  0  0  0
   -1.0600    2.3800   -0.0200 F   0  0  0  0  0  0  0  0  0  0  0  0
    1.7800    4.5800    0.6400 C   0  0  0  0  0  0  0  0  0  0  0  0
    4.1000    4.1800    0.4200 F   0  0  0  0  0  0  0  0  0  0  0  0
   -0.5600    4.9400    0.8400 F   0  0  0  0  0  0  0  0  0  0  0  0
  1  2  1  0  0  0  0 
  2  3  1  0  0  0  0 
  3  4  2  0  0  0  0 
  3  5  1  0  0  0  0 
  4  6  1  0  0  0  0 
  4  7  1  0  0  0  0 
  8  5  2  0  0  0  0 
  5  9  1  0  0  0  0 
  6 10  2  0  0  0  0 
  6 11  1  0  0  0  0 
 10  8  1  0  0  0  0 
  8 12  1  0  0  0  0 
M  END
> <Name>
2,3,5,6-Tetrafluoroanisole

> <Source>
NIH3DMolFile

> <Tox>
138

> <CAS>
2324-98-3

$$$$

  CDK

  6  5  0  0  0  0  0  0  0  0999 V2000
    1.9954    1.0233    0.0000 C   0  0  0  0  0  0  0  0  0  0  0  0
    0.9721    1.0233    0.0000 Si  0  0  0  0  0  0  0  0  0  0  0  0
    2.5071    1.8931    0.0000 Cl  0  0  0  0  0  0  0  0  0  0  0  0
    0.9721    0.0000    0.0000 C   0  0  0  0  0  0  0  0  0  0  0  0
    0.9721    1.9954    0.0000 C   0  0  0  0  0  0  0  0  0  0  0  0
    0.0000    1.0233    0.0000 C   0  0  0  0  0  0  0  0  0  0  0  0
  1  2  1  0  0  0  0 
  1  3  1  0  0  0  0 
  2  4  1  0  0  0  0 
  2  5  1  0  0  0  0 
  2  6  1  0  0  0  0 
M  END
> <Name>
SILANE, (CHLOROMETHYL)TRIMETHYL-

> <Source>
NIST2DMolFile

> <Tox>
98.5

> <CAS>
2344-80-1

$$$$

  CDK

  7  6  0  0  0  0  0  0  0  0999 V2000
    0.0000    0.0518    0.0000 C   0  0  0  0  0  0  0  0  0  0  0  0
    0.8813    0.4666    0.0000 C   0  0  0  0  0  0  0  0  0  0  0  0
    1.8144    0.0000    0.0000 C   0  0  0  0  0  0  0  0  0  0  0  0
    2.6957    0.4666    0.0000 C   0  0  0  0  0  0  0  0  0  0  0  0
    3.5251    0.0000    0.0000 C   0  0  0  0  0  0  0  0  0  0  0  0
    2.6957    1.5034    0.0000 Cl  0  0  0  0  0  0  0  0  0  0  0  0
    4.4064    0.4666    0.0000 C   0  0  0  0  0  0  0  0  0  0  0  0
  1  2  1  0  0  0  0 
  2  3  1  0  0  0  0 
  3  4  1  0  0  0  0 
  4  5  1  0  0  0  0 
  4  6  1  0  0  0  0 
  5  7  1  0  0  0  0 
M  END
> <Name>
Hexane, 3-chloro-

> <Source>
NIST2DMolFile

> <Tox>
123

> <CAS>
2346-81-8

$$$$

  CDK

  4  3  0  0  0  0  0  0  0  0999 V2000
    1.8766    1.8259    0.0000 Cl  0  0  0  0  0  0  0  0  0  0  0  0
    0.9130    1.3694    0.0000 C   0  0  0  0  0  0  0  0  0  0  0  0
    0.9130    0.4565    0.0000 S   0  0  0  0  0  0  0  0  0  0  0  0
    0.0000    0.0000    0.0000 C   0  0  0  0  0  0  0  0  0  0  0  0
  1  2  1  0  0  0  0 
  2  3  1  0  0  0  0 
  3  4  1  0  0  0  0 
M  END
> <Name>
Chloromethyl methyl sulfide

> <Source>
NIST2DMolFile

> <Tox>
105

> <CAS>
2373-51-5

$$$$

  CDK

  7  6  0  0  0  0  0  0  0  0999 V2000
    3.4681    0.8545    0.0000 C   0  0  0  0  0  0  0  0  0  0  0  0
    2.5131    0.8545    0.0000 C   0  0  0  0  0  0  0  0  0  0  0  0
    4.0210    0.0000    0.0000 C   0  0  0  0  0  0  0  0  0  0  0  0
    1.5079    0.8545    0.0000 C   0  0  0  0  0  0  0  0  0  0  0  0
    4.9760    0.0000    0.0000 C   0  0  0  0  0  0  0  0  0  0  0  0
    0.4524    0.8545    0.0000 C   0  0  0  0  0  0  0  0  0  0  0  0
    0.0000    1.7592    0.0000 C   0  0  0  0  0  0  0  0  0  0  0  0
  1  2  1  0  0  0  0 
  1  3  1  0  0  0  0 
  2  4  3  0  0  0  0 
  3  5  1  0  0  0  0 
  4  6  1  0  0  0  0 
  6  7  2  0  0  0  0 
M  END
> <Name>
1-HEPTEN-3-YNE

> <Source>
NIST2DMolFile

> <Tox>
110

> <CAS>
2384-73-8

$$$$

  CDK

 12 12  0  0  0  0  0  0  0  0999 V2000
    0.0000    0.0000    0.0000 C   0  0  0  0  0  0  0  0  0  0  0  0
   -1.3400    0.1200    0.7200 C   0  0  0  0  0  0  0  0  0  0  0  0
   -2.1800    1.2800    0.2000 C   0  0  0  0  0  0  0  0  0  0  0  0
   -2.1000   -1.1600    0.6800 C   0  0  0  0  0  0  0  0  0  0  0  0
   -2.7800   -1.5200   -0.4800 C   0  0  0  0  0  0  0  0  0  0  0  0
   -2.1200   -2.0000    1.8200 C   0  0  0  0  0  0  0  0  0  0  0  0
   -3.5000   -2.7400   -0.5000 C   0  0  0  0  0  0  0  0  0  0  0  0
   -2.8400   -3.2000    1.7800 C   0  0  0  0  0  0  0  0  0  0  0  0
   -3.5200   -3.5800    0.6200 C   0  0  0  0  0  0  0  0  0  0  0  0
   -4.3000   -4.8600    0.5800 C   0  0  0  0  0  0  0  0  0  0  0  0
   -5.2800   -5.1800   -0.5000 C   0  0  0  0  0  0  0  0  0  0  0  0
   -4.0800   -5.7600    1.5600 C   0  0  0  0  0  0  0  0  0  0  0  0
  1  2  1  0  0  0  0 
  2  3  1  0  0  0  0 
  2  4  1  0  0  0  0 
  5  4  2  0  0  0  0 
  4  6  1  0  0  0  0 
  7  5  1  0  0  0  0 
  8  6  2  0  0  0  0 
  9  7  2  0  0  0  0 
  9  8  1  0  0  0  0 
 10  9  1  0  0  0  0 
 11 10  1  0  0  0  0 
 10 12  2  0  0  0  0 
M  END
> <Name>
BENZENE, 1-(1-METHYLETHENYL)-4-(1-METHYLETHYL)-

> <Source>
NIH3DMolFile

> <Tox>
220.8

> <CAS>
2388-14-9

$$$$

  CDK

 12 12  0  0  0  0  0  0  0  0999 V2000
   -0.3449   -1.0738   -4.2584 O   0  0  0  0  0  0  0  0  0  0  0  0
    0.8925   -1.1871   -3.7216 C   0  0  0  0  0  0  0  0  0  0  0  0
    1.9130   -1.3821   -4.3598 O   0  0  0  0  0  0  0  0  0  0  0  0
    0.7883   -1.0359   -2.2554 C   0  0  0  0  0  0  0  0  0  0  0  0
    1.8964   -1.1303   -1.5265 C   0  0  0  0  0  0  0  0  0  0  0  0
    1.8991   -1.0135   -0.0768 C   0  0  0  0  0  0  0  0  0  0  0  0
    0.8324   -0.3948    0.5751 C   0  0  0  0  0  0  0  0  0  0  0  0
    2.9683   -1.5204    0.6618 C   0  0  0  0  0  0  0  0  0  0  0  0
    0.8349   -0.2829    1.9655 C   0  0  0  0  0  0  0  0  0  0  0  0
    2.9708   -1.4085    2.0522 C   0  0  0  0  0  0  0  0  0  0  0  0
    1.9042   -0.7896    2.7040 C   0  0  0  0  0  0  0  0  0  0  0  0
    1.9063   -0.6758    4.1095 N   0  0  0  0  0  0  0  0  0  0  0  0
  1  2  1  0  0  0  0 
  3  2  2  0  0  0  0 
  4  2  1  0  0  0  0 
  5  4  2  0  0  0  0 
  6  5  1  0  0  0  0 
  6  7  2  0  0  0  0 
  6  8  1  0  0  0  0 
  7  9  1  0  0  0  0 
  8 10  2  0  0  0  0 
 11  9  2  0  0  0  0 
 11 10  1  0  0  0  0 
 12 11  1  0  0  0  0 
M  END
> <Name>
2-Propenoic acid, 3-(4-aminophenyl)-

> <Source>
Chemidplus3DMolFile

> <Tox>
285

> <CAS>
2393-18-2

$$$$

  CDK

  9  8  0  0  0  0  0  0  0  0999 V2000
    6.7536    2.2219    1.5852 C   0  0  0  0  0  0  0  0  0  0  0  0
    5.6092    1.2213    1.5845 C   0  0  0  0  0  0  0  0  0  0  0  0
    8.0467    1.5691    2.0600 C   0  0  0  0  0  0  0  0  0  0  0  0
    4.3147    1.8670    1.1173 C   0  0  0  0  0  0  0  0  0  0  0  0
    9.1407    2.5052    2.0565 C   0  0  0  0  0  0  0  0  0  0  0  0
    3.1724    0.8576    1.1185 C   0  0  0  0  0  0  0  0  0  0  0  0
   10.0475    3.2779    2.0573 C   0  0  0  0  0  0  0  0  0  0  0  0
    1.9386    1.4577    0.6819 C   0  0  0  0  0  0  0  0  0  0  0  0
    0.9146    1.9486    0.3219 C   0  0  0  0  0  0  0  0  0  0  0  0
  1  2  1  0  0  0  0 
  1  3  1  0  0  0  0 
  2  4  1  0  0  0  0 
  3  5  1  0  0  0  0 
  4  6  1  0  0  0  0 
  5  7  3  0  0  0  0 
  6  8  1  0  0  0  0 
  8  9  3  0  0  0  0 
M  END
> <Name>
1,8-NONADIYNE

> <Source>
NIST3DMolFile

> <Tox>
162

> <CAS>
2396-65-8

$$$$

  CDK

 10 10  0  0  0  0  0  0  0  0999 V2000
    3.4609   -3.3333    0.0000 N   0  0  0  0  0  0  0  0  0  0  0  0
    2.3073   -3.9872    0.0000 C   0  0  0  0  0  0  0  0  0  0  0  0
    3.4609   -2.0042    0.0000 C   0  0  0  0  0  0  0  0  0  0  0  0
    1.1536   -3.3333    0.0000 C   0  0  0  0  0  0  0  0  0  0  0  0
    2.3073   -5.3163    0.0000 Cl  0  0  0  0  0  0  0  0  0  0  0  0
    2.3073   -1.3291    0.0000 C   0  0  0  0  0  0  0  0  0  0  0  0
    4.6092   -1.3291    0.0000 Cl  0  0  0  0  0  0  0  0  0  0  0  0
    1.1536   -2.0042    0.0000 C   0  0  0  0  0  0  0  0  0  0  0  0
    0.0000   -3.9872    0.0000 Cl  0  0  0  0  0  0  0  0  0  0  0  0
    2.3073   -0.0000    0.0000 Cl  0  0  0  0  0  0  0  0  0  0  0  0
  1  2  2  0  0  0  0 
  1  3  1  0  0  0  0 
  2  4  1  0  0  0  0 
  2  5  1  0  0  0  0 
  3  6  2  0  0  0  0 
  3  7  1  0  0  0  0 
  4  8  2  0  0  0  0 
  4  9  1  0  0  0  0 
  6  8  1  0  0  0  0 
  6 10  1  0  0  0  0 
M  END
> <Name>
2,3,5,6-TETRACHLORPYRIDINE

> <Source>
DSSTox2DMolFile

> <Tox>
250.5

> <CAS>
2402-79-1

$$$$

  CDK

 11 10  0  0  0  0  0  0  0  0999 V2000
    2.4977    2.4977    0.0000 O   0  0  0  0  0  0  0  0  0  0  0  0
    2.4977    1.4782    0.0000 P   0  0  0  0  0  0  0  0  0  0  0  0
    1.5292    1.4782    0.0000 O   0  0  0  0  0  0  0  0  0  0  0  0
    2.4977    0.5097    0.0000 N   0  0  0  0  0  0  0  0  0  0  0  0
    3.5171    1.4782    0.0000 O   0  0  0  0  0  0  0  0  0  0  0  0
    1.0195    0.6626    0.0000 C   0  0  0  0  0  0  0  0  0  0  0  0
    3.3642    0.0000    0.0000 C   0  0  0  0  0  0  0  0  0  0  0  0
    1.6821    0.0000    0.0000 C   0  0  0  0  0  0  0  0  0  0  0  0
    4.0269    2.3448    0.0000 C   0  0  0  0  0  0  0  0  0  0  0  0
    0.0000    0.6626    0.0000 C   0  0  0  0  0  0  0  0  0  0  0  0
    5.0973    2.3448    0.0000 C   0  0  0  0  0  0  0  0  0  0  0  0
  1  2  2  0  0  0  0 
  2  3  1  0  0  0  0 
  2  4  1  0  0  0  0 
  2  5  1  0  0  0  0 
  3  6  1  0  0  0  0 
  4  7  1  0  0  0  0 
  4  8  1  0  0  0  0 
  5  9  1  0  0  0  0 
  6 10  1  0  0  0  0 
  9 11  1  0  0  0  0 
M  END
> <Name>
DIETHYL DIMETHYLPHOSPHORAMIDATE

> <Source>
NIST2DMolFile

> <Tox>
232.05

> <CAS>
2404-03-7

$$$$

  CDK

  8  7  0  0  0  0  0  0  0  0999 V2000
    4.3022    1.9218    0.9766 O   0  0  0  0  0  0  0  0  0  0  0  0
    3.1334    1.2130    0.9547 C   0  0  0  0  0  0  0  0  0  0  0  0
    5.5372    1.2026    0.9693 C   0  0  0  0  0  0  0  0  0  0  0  0
    1.9273    2.1249    0.9832 C   0  0  0  0  0  0  0  0  0  0  0  0
    3.1816    0.0000    0.9082 O   0  0  0  0  0  0  0  0  0  0  0  0
    6.6244    2.2130    1.1442 C   0  0  0  0  0  0  0  0  0  0  0  0
    0.6029    1.3911    1.0627 C   0  0  0  0  0  0  0  0  0  0  0  0
    7.8398    1.8642    1.5491 C   0  0  0  0  0  0  0  0  0  0  0  0
  1  2  1  0  0  0  0 
  1  3  1  0  0  0  0 
  2  4  1  0  0  0  0 
  2  5  2  0  0  0  0 
  3  6  1  0  0  0  0 
  4  7  1  0  0  0  0 
  6  8  2  0  0  0  0 
M  END
> <Name>
Propanoic acid, 2-propenyl ester

> <Source>
NIST3DMolFile

> <Tox>
124

> <CAS>
2408-20-0

$$$$

  CDK

 15 14  0  0  0  0  0  0  0  0999 V2000
    1.1557   -0.6741    0.0000 C   0  0  0  0  0  0  0  0  0  0  0  0
    2.2953   -0.0000    0.0000 C   0  0  0  0  0  0  0  0  0  0  0  0
    0.0000   -0.0000    0.0000 Cl  0  0  0  0  0  0  0  0  0  0  0  0
    3.4349   -0.6741    0.0000 C   0  0  0  0  0  0  0  0  0  0  0  0
    4.5745   -0.0000    0.0000 C   0  0  0  0  0  0  0  0  0  0  0  0
    5.7301   -0.6741    0.0000 C   0  0  0  0  0  0  0  0  0  0  0  0
    6.8697   -0.0000    0.0000 C   0  0  0  0  0  0  0  0  0  0  0  0
    8.0254   -0.6741    0.0000 C   0  0  0  0  0  0  0  0  0  0  0  0
    9.1811   -0.0000    0.0000 C   0  0  0  0  0  0  0  0  0  0  0  0
   10.3207   -0.6741    0.0000 C   0  0  0  0  0  0  0  0  0  0  0  0
   11.4763   -0.0000    0.0000 C   0  0  0  0  0  0  0  0  0  0  0  0
   12.6159   -0.6741    0.0000 C   0  0  0  0  0  0  0  0  0  0  0  0
   13.7555   -0.0000    0.0000 C   0  0  0  0  0  0  0  0  0  0  0  0
   14.8951   -0.6741    0.0000 C   0  0  0  0  0  0  0  0  0  0  0  0
   16.0508   -0.0000    0.0000 C   0  0  0  0  0  0  0  0  0  0  0  0
  1  2  1  0  0  0  0 
  1  3  1  0  0  0  0 
  2  4  1  0  0  0  0 
  4  5  1  0  0  0  0 
  5  6  1  0  0  0  0 
  6  7  1  0  0  0  0 
  7  8  1  0  0  0  0 
  8  9  1  0  0  0  0 
  9 10  1  0  0  0  0 
 10 11  1  0  0  0  0 
 11 12  1  0  0  0  0 
 12 13  1  0  0  0  0 
 13 14  1  0  0  0  0 
 14 15  1  0  0  0  0 
M  END
> <Name>
1-CHLOROTETRADECANE

> <Source>
DSSTox2DMolFile

> <Tox>
292

> <CAS>
2425-54-9

$$$$

  CDK

 14 15  0  0  0  0  0  0  0  0999 V2000
    2.4760   -3.1482    0.0000 C   0  0  0  0  0  0  0  0  0  0  0  0
    3.6300   -2.4872    0.0000 O   0  0  0  0  0  0  0  0  0  0  0  0
    1.3332   -2.4872    0.0000 C   0  0  0  0  0  0  0  0  0  0  0  0
    4.7839   -3.1482    0.0000 C   0  0  0  0  0  0  0  0  0  0  0  0
    0.0000   -2.4872    0.0000 C   0  0  0  0  0  0  0  0  0  0  0  0
    0.6610   -1.3332    0.0000 O   0  0  0  0  0  0  0  0  0  0  0  0
    5.9379   -2.4872    0.0000 C   0  0  0  0  0  0  0  0  0  0  0  0
    7.0807   -3.1482    0.0000 C   0  0  0  0  0  0  0  0  0  0  0  0
    8.2346   -2.4872    0.0000 C   0  0  0  0  0  0  0  0  0  0  0  0
    9.3886   -3.1482    0.0000 O   0  0  0  0  0  0  0  0  0  0  0  0
   10.5426   -2.4872    0.0000 C   0  0  0  0  0  0  0  0  0  0  0  0
   10.5426   -1.1540    0.0000 C   0  0  0  0  0  0  0  0  0  0  0  0
    9.8703   -0.0000    0.0000 C   0  0  0  0  0  0  0  0  0  0  0  0
   11.2036   -0.0000    0.0000 O   0  0  0  0  0  0  0  0  0  0  0  0
  1  2  1  0  0  0  0 
  1  3  1  0  0  0  0 
  2  4  1  0  0  0  0 
  3  5  1  0  0  0  0 
  3  6  1  0  0  0  0 
  4  7  1  0  0  0  0 
  5  6  1  0  0  0  0 
  7  8  1  0  0  0  0 
  8  9  1  0  0  0  0 
  9 10  1  0  0  0  0 
 10 11  1  0  0  0  0 
 11 12  1  0  0  0  0 
 12 13  1  0  0  0  0 
 12 14  1  0  0  0  0 
 13 14  1  0  0  0  0 
M  END
> <Name>
Oxirane, 2,2'- 1,4-butanediylbis(oxymethylene) b

> <Source>
DSSTox2DMolFile

> <Tox>
266

> <CAS>
2425-79-8

$$$$

  CDK

  8  7  0  0  0  0  0  0  0  0999 V2000
    3.2736    0.0181   -0.0004 C   0  0  0  0  0  0  0  0  0  0  0  0
    2.0247   -0.7151    0.0016 C   0  0  0  0  0  0  0  0  0  0  0  0
    4.2746    0.6025   -0.0021 N   0  0  0  0  0  0  0  0  0  0  0  0
    0.8299    0.2308    0.0016 C   0  0  0  0  0  0  0  0  0  0  0  0
   -0.4735   -0.5523    0.0001 C   0  0  0  0  0  0  0  0  0  0  0  0
   -1.6739    0.3789    0.0020 C   0  0  0  0  0  0  0  0  0  0  0  0
   -2.9780   -0.4158   -0.0030 C   0  0  0  0  0  0  0  0  0  0  0  0
   -4.1982    0.4094   -0.0003 N   0  0  0  0  0  0  0  0  0  0  0  0
  1  2  1  0  0  0  0 
  1  3  3  0  0  0  0 
  2  4  1  0  0  0  0 
  4  5  1  0  0  0  0 
  5  6  1  0  0  0  0 
  6  7  1  0  0  0  0 
  7  8  1  0  0  0  0 
M  END
> <Name>
6-Aminohexanenitrile

> <Source>
DougDB3DMolFile

> <Tox>
235.5

> <CAS>
2432-74-8

$$$$

  CDK

 12 13  0  0  0  0  0  0  0  0999 V2000
    0.2704    1.8883    0.0001 N   0  0  0  0  0  0  0  0  0  0  0  0
   -0.6580    0.9131    0.0000 C   0  0  0  0  0  0  0  0  0  0  0  0
    1.5747    1.5298    0.0000 C   0  0  0  0  0  0  0  0  0  0  0  0
   -0.3033   -0.4522   -0.0001 C   0  0  0  0  0  0  0  0  0  0  0  0
   -2.0117    1.2380    0.0002 C   0  0  0  0  0  0  0  0  0  0  0  0
    2.0182    0.2228   -0.0001 C   0  0  0  0  0  0  0  0  0  0  0  0
    1.0592   -0.7799   -0.0003 C   0  0  0  0  0  0  0  0  0  0  0  0
   -1.2987   -1.4441   -0.0002 C   0  0  0  0  0  0  0  0  0  0  0  0
   -3.0015    0.2521    0.0001 C   0  0  0  0  0  0  0  0  0  0  0  0
    3.4783   -0.0701    0.0000 C   0  0  0  0  0  0  0  0  0  0  0  0
    1.5174   -2.2071    0.0005 C   0  0  0  0  0  0  0  0  0  0  0  0
   -2.6450   -1.0907   -0.0001 C   0  0  0  0  0  0  0  0  0  0  0  0
  1  2  1  0  0  0  0 
  1  3  2  0  0  0  0 
  4  2  1  0  0  0  0 
  2  5  2  0  0  0  0 
  6  3  1  0  0  0  0 
  7  4  1  0  0  0  0 
  4  8  2  0  0  0  0 
  5  9  1  0  0  0  0 
  7  6  2  0  0  0  0 
  6 10  1  0  0  0  0 
  7 11  1  0  0  0  0 
  8 12  1  0  0  0  0 
 12  9  2  0  0  0  0 
M  END
> <Name>
3,4-DIMETHYLQUINOLINE

> <Source>
Chemidplus3DMolFile

> <Tox>
291

> <CAS>
2436-92-2

$$$$

  CDK

 13 12  0  0  0  0  0  0  0  0999 V2000
    0.0000   -0.0000    0.0000 C   0  0  0  0  0  0  0  0  0  0  0  0
    1.1737   -0.6427    0.0000 C   0  0  0  0  0  0  0  0  0  0  0  0
    2.3334   -0.0000    0.0000 C   0  0  0  0  0  0  0  0  0  0  0  0
    3.5071   -0.6427    0.0000 C   0  0  0  0  0  0  0  0  0  0  0  0
    4.6528   -0.0000    0.0000 C   0  0  0  0  0  0  0  0  0  0  0  0
    5.8265   -0.6427    0.0000 C   0  0  0  0  0  0  0  0  0  0  0  0
    6.9862   -0.0000    0.0000 C   0  0  0  0  0  0  0  0  0  0  0  0
    8.1460   -0.6427    0.0000 C   0  0  0  0  0  0  0  0  0  0  0  0
    9.3197   -0.0000    0.0000 C   0  0  0  0  0  0  0  0  0  0  0  0
   10.4654   -0.6427    0.0000 C   0  0  0  0  0  0  0  0  0  0  0  0
   11.6391   -0.0000    0.0000 C   0  0  0  0  0  0  0  0  0  0  0  0
   12.7988   -0.6427    0.0000 C   0  0  0  0  0  0  0  0  0  0  0  0
   13.9725   -0.0000    0.0000 C   0  0  0  0  0  0  0  0  0  0  0  0
  1  2  2  0  0  0  0 
  2  3  1  0  0  0  0 
  3  4  1  0  0  0  0 
  4  5  1  0  0  0  0 
  5  6  1  0  0  0  0 
  6  7  1  0  0  0  0 
  7  8  1  0  0  0  0 
  8  9  1  0  0  0  0 
  9 10  1  0  0  0  0 
 10 11  1  0  0  0  0 
 11 12  1  0  0  0  0 
 12 13  1  0  0  0  0 
M  END
> <Name>
1-TRIDECENE

> <Source>
DSSTox2DMolFile

> <Tox>
232.8

> <CAS>
2437-56-1

$$$$

  CDK

  9  8  0  0  0  0  0  0  0  0999 V2000
    0.0000    1.7893    0.0000 C   0  0  0  0  0  0  0  0  0  0  0  0
    0.9940    1.7893    0.0000 C   0  0  0  0  0  0  0  0  0  0  0  0
    1.4911    0.9443    0.0000 O   0  0  0  0  0  0  0  0  0  0  0  0
    2.4354    0.9443    0.0000 P   0  0  0  0  0  0  0  0  0  0  0  0
    2.4354    0.0000    0.0000 C   0  0  0  0  0  0  0  0  0  0  0  0
    2.4354    2.0378    0.0000 O   0  0  0  0  0  0  0  0  0  0  0  0
    3.4792    0.9443    0.0000 S   0  0  0  0  0  0  0  0  0  0  0  0
    3.9265    1.7893    0.0000 C   0  0  0  0  0  0  0  0  0  0  0  0
    4.9702    1.7893    0.0000 C   0  0  0  0  0  0  0  0  0  0  0  0
  1  2  1  0  0  0  0 
  2  3  1  0  0  0  0 
  3  4  1  0  0  0  0 
  4  5  1  0  0  0  0 
  4  6  2  0  0  0  0 
  4  7  1  0  0  0  0 
  7  8  1  0  0  0  0 
  8  9  1  0  0  0  0 
M  END
> <Name>
Phosphonothioic acid, methyl-, O,S-diethyl ester

> <Source>
NIST2DMolFile

> <Tox>
229.4

> <CAS>
2511-10-6

$$$$

  CDK

  9  8  0  0  0  0  0  0  0  0999 V2000
    1.7427    1.4938    0.0000 C   0  0  0  0  0  0  0  0  0  0  0  0
    2.5892    0.9959    0.0000 C   0  0  0  0  0  0  0  0  0  0  0  0
    0.8963    0.9959    0.0000 C   0  0  0  0  0  0  0  0  0  0  0  0
    3.4855    1.4938    0.0000 C   0  0  0  0  0  0  0  0  0  0  0  0
    0.8963    0.0000    0.0000 Cl  0  0  0  0  0  0  0  0  0  0  0  0
    0.0000    1.4938    0.0000 O   0  0  0  0  0  0  0  0  0  0  0  0
    4.3320    0.9959    0.0000 C   0  0  0  0  0  0  0  0  0  0  0  0
    5.1784    1.4938    0.0000 C   0  0  0  0  0  0  0  0  0  0  0  0
    6.0747    0.9959    0.0000 C   0  0  0  0  0  0  0  0  0  0  0  0
  1  2  1  0  0  0  0 
  1  3  1  0  0  0  0 
  2  4  1  0  0  0  0 
  3  5  1  0  0  0  0 
  3  6  2  0  0  0  0 
  4  7  1  0  0  0  0 
  7  8  1  0  0  0  0 
  8  9  1  0  0  0  0 
M  END
> <Name>
HEPTANOYL CHLORIDE

> <Source>
NIST2DMolFile

> <Tox>
145

> <CAS>
2528-61-2

$$$$

  CDK

 11 11  0  0  0  0  0  0  0  0999 V2000
    5.7582   -0.0000    0.0000 C   0  0  0  0  0  0  0  0  0  0  0  0
    5.7582   -1.3272    0.0000 C   0  0  0  0  0  0  0  0  0  0  0  0
    4.6107   -1.9977    0.0000 C   0  0  0  0  0  0  0  0  0  0  0  0
    6.9126   -1.9977    0.0000 O   0  0  0  0  0  0  0  0  0  0  0  0
    3.4563   -1.3272    0.0000 C   0  0  0  0  0  0  0  0  0  0  0  0
    2.3019   -1.9977    0.0000 C   0  0  0  0  0  0  0  0  0  0  0  0
    1.1544   -1.3272    0.0000 C   0  0  0  0  0  0  0  0  0  0  0  0
    2.3019   -3.3250    0.0000 C   0  0  0  0  0  0  0  0  0  0  0  0
    0.0000   -1.9977    0.0000 C   0  0  0  0  0  0  0  0  0  0  0  0
    1.1544   -3.9817    0.0000 C   0  0  0  0  0  0  0  0  0  0  0  0
    0.0000   -3.3250    0.0000 C   0  0  0  0  0  0  0  0  0  0  0  0
  1  2  1  0  0  0  0 
  2  3  1  0  0  0  0 
  2  4  2  0  0  0  0 
  3  5  1  0  0  0  0 
  5  6  1  0  0  0  0 
  6  7  2  0  0  0  0 
  6  8  1  0  0  0  0 
  7  9  1  0  0  0  0 
  8 10  2  0  0  0  0 
  9 11  2  0  0  0  0 
 10 11  1  0  0  0  0 
M  END
> <Name>
2-Butanone, 4-phenyl-

> <Source>
DSSTox2DMolFile

> <Tox>
233.5

> <CAS>
2550-26-7

$$$$

  CDK

 16 17  0  0  0  0  0  0  0  0999 V2000
    0.0000    0.0000    0.0000 C   0  0  0  0  0  0  0  0  0  0  0  0
   -1.2400   -0.3000    0.7600 C   0  0  0  0  0  0  0  0  0  0  0  0
   -1.2400   -1.2400    1.8200 C   0  0  0  0  0  0  0  0  0  0  0  0
   -2.4200    0.3800    0.4200 C   0  0  0  0  0  0  0  0  0  0  0  0
   -2.4200   -1.5000    2.5200 C   0  0  0  0  0  0  0  0  0  0  0  0
    0.0200   -1.9600    2.1800 C   0  0  0  0  0  0  0  0  0  0  0  0
   -3.6200    0.1000    1.1200 C   0  0  0  0  0  0  0  0  0  0  0  0
   -3.6200   -0.8400    2.1800 C   0  0  0  0  0  0  0  0  0  0  0  0
   -4.8800   -1.1200    2.9200 C   0  0  0  0  0  0  0  0  0  0  0  0
   -5.5600   -0.2200    3.3600 O   0  0  0  0  0  0  0  0  0  0  0  0
   -5.2600   -2.5400    3.1400 C   0  0  0  0  0  0  0  0  0  0  0  0
   -4.7000   -3.5400    2.3200 C   0  0  0  0  0  0  0  0  0  0  0  0
   -6.1800   -2.8800    4.1400 C   0  0  0  0  0  0  0  0  0  0  0  0
   -5.0600   -4.9000    2.5200 C   0  0  0  0  0  0  0  0  0  0  0  0
   -6.5400   -4.2200    4.3400 C   0  0  0  0  0  0  0  0  0  0  0  0
   -6.0000   -5.2400    3.5200 C   0  0  0  0  0  0  0  0  0  0  0  0
  1  2  1  0  0  0  0 
  2  3  2  0  0  0  0 
  2  4  1  0  0  0  0 
  3  5  1  0  0  0  0 
  3  6  1  0  0  0  0 
  4  7  2  0  0  0  0 
  5  8  2  0  0  0  0 
  8  7  1  0  0  0  0 
  8  9  1  0  0  0  0 
  9 10  2  0  0  0  0 
  9 11  1  0  0  0  0 
 11 12  2  0  0  0  0 
 11 13  1  0  0  0  0 
 12 14  1  0  0  0  0 
 15 13  2  0  0  0  0 
 14 16  2  0  0  0  0 
 16 15  1  0  0  0  0 
M  END
> <Name>
3,4-Dimethylphenyl phenyl ketone

> <Source>
NIH3DMolFile

> <Tox>
341

> <CAS>
2571-39-3

$$$$

  CDK

 10  9  0  0  0  0  0  0  0  0999 V2000
    0.8244    1.0665    1.8974 C   0  0  0  0  0  0  0  0  0  0  0  0
    1.7372    1.4828    3.0385 C   0  0  0  0  0  0  0  0  0  0  0  0
    2.8913    2.3688    2.5567 C   0  0  0  0  0  0  0  0  0  0  0  0
    0.9310    2.2052    4.1072 C   0  0  0  0  0  0  0  0  0  0  0  0
    4.1445    1.6152    2.0992 C   0  0  0  0  0  0  0  0  0  0  0  0
    4.7041    0.7534    3.2336 C   0  0  0  0  0  0  0  0  0  0  0  0
    3.9067    0.7933    0.8469 C   0  0  0  0  0  0  0  0  0  0  0  0
    5.2753    1.6281    4.3523 C   0  0  0  0  0  0  0  0  0  0  0  0
    6.5335    2.3391    3.8820 C   0  0  0  0  0  0  0  0  0  0  0  0
    5.5569    0.8004    5.5924 C   0  0  0  0  0  0  0  0  0  0  0  0
  1  2  1  0  0  0  0 
  2  3  1  0  0  0  0 
  2  4  1  0  0  0  0 
  3  5  1  0  0  0  0 
  5  6  1  0  0  0  0 
  5  7  1  0  0  0  0 
  6  8  1  0  0  0  0 
  8  9  1  0  0  0  0 
  8 10  1  0  0  0  0 
M  END
> <Name>
2,4,6-TRIMETHYLHEPTANE

> <Source>
NIST3DMolFile

> <Tox>
147.6

> <CAS>
2613-61-8

$$$$

  CDK

  8  8  0  0  0  0  0  0  0  0999 V2000
    4.2859    1.3142    0.9760 C   0  0  0  0  0  0  0  0  0  0  0  0
    2.8307    1.2120    1.3749 C   0  0  0  0  0  0  0  0  0  0  0  0
    2.5637    1.8389    2.7380 C   0  0  0  0  0  0  0  0  0  0  0  0
    3.1722    1.0445    3.9000 C   0  0  0  0  0  0  0  0  0  0  0  0
    1.0657    1.9241    3.0424 C   0  0  0  0  0  0  0  0  0  0  0  0
    2.1632    1.0754    5.0572 C   0  0  0  0  0  0  0  0  0  0  0  0
    0.9516    1.8738    4.5597 C   0  0  0  0  0  0  0  0  0  0  0  0
    2.7562    1.6747    6.3172 C   0  0  0  0  0  0  0  0  0  0  0  0
  1  2  1  0  0  0  0 
  2  3  1  0  0  0  0 
  3  4  1  0  0  0  0 
  5  3  1  0  0  0  0 
  4  6  1  0  0  0  0 
  7  5  1  0  0  0  0 
  6  7  1  0  0  0  0 
  6  8  1  0  0  0  0 
M  END
> <Name>
CYCLOPENTANE, 1-ETHYL-3-METHYL-, TRANS-

> <Source>
NIST3DMolFile

> <Tox>
121

> <CAS>
2613-65-2

$$$$

  CDK

 12 13  0  0  0  0  0  0  0  0999 V2000
    0.9319    0.8967    0.0000 N   0  0  0  0  0  0  0  0  0  0  0  0
    1.6464    0.4842    0.0000 C   0  0  0  0  0  0  0  0  0  0  0  0
    0.2174    0.4842    0.0000 C   0  0  0  0  0  0  0  0  0  0  0  0
    1.6464   -0.3408    0.0000 C   0  0  0  0  0  0  0  0  0  0  0  0
   -0.4970    0.8967    0.0000 C   0  0  0  0  0  0  0  0  0  0  0  0
    0.2174   -0.3408    0.0000 C   0  0  0  0  0  0  0  0  0  0  0  0
    0.9319   -0.7533    0.0000 C   0  0  0  0  0  0  0  0  0  0  0  0
   -1.2115    0.4842    0.0000 C   0  0  0  0  0  0  0  0  0  0  0  0
   -0.4970    1.7217    0.0000 C   0  0  0  0  0  0  0  0  0  0  0  0
   -0.4970   -0.7533    0.0000 C   0  0  0  0  0  0  0  0  0  0  0  0
   -1.2115   -0.3408    0.0000 C   0  0  0  0  0  0  0  0  0  0  0  0
   -0.4970   -1.5783    0.0000 C   0  0  0  0  0  0  0  0  0  0  0  0
  1  2  1  0  0  0  0 
  1  3  2  0  0  0  0 
  2  4  2  0  0  0  0 
  3  5  1  0  0  0  0 
  3  6  1  0  0  0  0 
  4  7  1  0  0  0  0 
  5  8  2  0  0  0  0 
  5  9  1  0  0  0  0 
  7  6  2  0  0  0  0 
  6 10  1  0  0  0  0 
  8 11  1  0  0  0  0 
 11 10  2  0  0  0  0 
 10 12  1  0  0  0  0 
M  END
> <Name>
QUINOLINE, 5,8-DIMETHYL-

> <Source>
Smiles

> <Tox>
266

> <CAS>
2623-50-9

$$$$

  CDK

 37 36  0  0  0  0  0  0  0  0999 V2000
    9.9867   11.8533    0.0000 C   0  0  0  0  0  0  0  0  0  0  0  0
   10.8733   12.9267    0.0000 Si  0  0  0  0  0  0  0  0  0  0  0  0
   12.2733   12.6933    0.0000 C   0  0  0  0  0  0  0  0  0  0  0  0
   11.3400   14.2333    0.0000 C   0  0  0  0  0  0  0  0  0  0  0  0
    9.6600   13.6267    0.0000 O   0  0  0  0  0  0  0  0  0  0  0  0
    8.4467   12.9267    0.0000 Si  0  0  0  0  0  0  0  0  0  0  0  0
    8.4467   11.5267    0.0000 C   0  0  0  0  0  0  0  0  0  0  0  0
    7.9800   14.2333    0.0000 C   0  0  0  0  0  0  0  0  0  0  0  0
    7.0467   12.6933    0.0000 O   0  0  0  0  0  0  0  0  0  0  0  0
    6.5800   11.3867    0.0000 Si  0  0  0  0  0  0  0  0  0  0  0  0
    7.4667   10.3133    0.0000 C   0  0  0  0  0  0  0  0  0  0  0  0
    5.3667   12.0867    0.0000 C   0  0  0  0  0  0  0  0  0  0  0  0
    5.6933   10.3133    0.0000 O   0  0  0  0  0  0  0  0  0  0  0  0
    6.1600    8.9600    0.0000 Si  0  0  0  0  0  0  0  0  0  0  0  0
    7.5600    8.7267    0.0000 C   0  0  0  0  0  0  0  0  0  0  0  0
    4.8067    8.7267    0.0000 C   0  0  0  0  0  0  0  0  0  0  0  0
    6.1600    7.5600    0.0000 O   0  0  0  0  0  0  0  0  0  0  0  0
    7.3733    6.8600    0.0000 Si  0  0  0  0  0  0  0  0  0  0  0  0
    8.5867    7.5600    0.0000 C   0  0  0  0  0  0  0  0  0  0  0  0
    6.4867    5.7867    0.0000 C   0  0  0  0  0  0  0  0  0  0  0  0
    8.5400    5.4600    0.0000 O   0  0  0  0  0  0  0  0  0  0  0  0
    7.9333    3.7800    0.0000 Si  0  0  0  0  0  0  0  0  0  0  0  0
    7.9333    2.3800    0.0000 C   0  0  0  0  0  0  0  0  0  0  0  0
    9.2867    3.5467    0.0000 C   0  0  0  0  0  0  0  0  0  0  0  0
    6.7200    4.4800    0.0000 O   0  0  0  0  0  0  0  0  0  0  0  0
    5.5067    3.7800    0.0000 Si  0  0  0  0  0  0  0  0  0  0  0  0
    5.5067    2.3800    0.0000 C   0  0  0  0  0  0  0  0  0  0  0  0
    5.0400    5.0867    0.0000 C   0  0  0  0  0  0  0  0  0  0  0  0
    4.1067    3.5467    0.0000 O   0  0  0  0  0  0  0  0  0  0  0  0
    3.6400    2.1933    0.0000 Si  0  0  0  0  0  0  0  0  0  0  0  0
    4.5267    1.1200    0.0000 C   0  0  0  0  0  0  0  0  0  0  0  0
    2.7533    1.1200    0.0000 O   0  0  0  0  0  0  0  0  0  0  0  0
    2.4267    2.8933    0.0000 C   0  0  0  0  0  0  0  0  0  0  0  0
    1.3533    1.4000    0.0000 Si  0  0  0  0  0  0  0  0  0  0  0  0
    0.8867    2.7067    0.0000 C   0  0  0  0  0  0  0  0  0  0  0  0
    0.0000    1.1200    0.0000 C   0  0  0  0  0  0  0  0  0  0  0  0
    1.3533    0.0000    0.0000 C   0  0  0  0  0  0  0  0  0  0  0  0
  1  2  1  0  0  0  0 
  2  3  1  0  0  0  0 
  2  4  1  0  0  0  0 
  2  5  1  0  0  0  0 
  5  6  1  0  0  0  0 
  6  7  1  0  0  0  0 
  6  8  1  0  0  0  0 
  6  9  1  0  0  0  0 
  9 10  1  0  0  0  0 
 10 11  1  0  0  0  0 
 10 12  1  0  0  0  0 
 10 13  1  0  0  0  0 
 13 14  1  0  0  0  0 
 14 15  1  0  0  0  0 
 14 16  1  0  0  0  0 
 14 17  1  0  0  0  0 
 17 18  1  0  0  0  0 
 18 19  1  0  0  0  0 
 18 20  1  0  0  0  0 
 18 21  1  0  0  0  0 
 21 22  1  0  0  0  0 
 22 23  1  0  0  0  0 
 22 24  1  0  0  0  0 
 22 25  1  0  0  0  0 
 25 26  1  0  0  0  0 
 26 27  1  0  0  0  0 
 26 28  1  0  0  0  0 
 26 29  1  0  0  0  0 
 29 30  1  0  0  0  0 
 30 31  1  0  0  0  0 
 30 32  1  0  0  0  0 
 30 33  1  0  0  0  0 
 32 34  1  0  0  0  0 
 34 35  1  0  0  0  0 
 34 36  1  0  0  0  0 
 34 37  1  0  0  0  0 
M  END
> <Name>
NONASILOXANE, EICOSAMETHYL-

> <Source>
IndexNet2DMolFile

> <Tox>
307.5

> <CAS>
2652-13-3

$$$$

  CDK

  9  9  0  0  0  0  0  0  0  0999 V2000
    1.1525   -1.3279    0.0000 C   0  0  0  0  0  0  0  0  0  0  0  0
    0.0000   -2.0018    0.0000 C   0  0  0  0  0  0  0  0  0  0  0  0
    2.3049   -2.0018    0.0000 C   0  0  0  0  0  0  0  0  0  0  0  0
    1.1525   -0.0000    0.0000 N   0  0  0  0  0  0  0  0  0  0  0  0
    0.0000   -3.3297    0.0000 C   0  0  0  0  0  0  0  0  0  0  0  0
    2.3049   -3.3297    0.0000 C   0  0  0  0  0  0  0  0  0  0  0  0
    3.4574   -1.3279    0.0000 N   0  0  0  0  0  0  0  0  0  0  0  0
    1.1525   -3.9877    0.0000 C   0  0  0  0  0  0  0  0  0  0  0  0
    3.4574   -3.9877    0.0000 C   0  0  0  0  0  0  0  0  0  0  0  0
  1  2  2  0  0  0  0 
  1  3  1  0  0  0  0 
  1  4  1  0  0  0  0 
  2  5  1  0  0  0  0 
  6  3  2  0  0  0  0 
  3  7  1  0  0  0  0 
  5  8  2  0  0  0  0 
  8  6  1  0  0  0  0 
  6  9  1  0  0  0  0 
M  END
> <Name>
2,3-DIAMINOTOLUENE

> <Source>
DSSTox2DMolFile

> <Tox>
255

> <CAS>
2687-25-4

$$$$

  CDK

 13 13  0  0  0  0  0  0  0  0999 V2000
    4.6539   -0.0000    0.0000 Cl  0  0  0  0  0  0  0  0  0  0  0  0
    5.3198   -1.1488    0.0000 C   0  0  0  0  0  0  0  0  0  0  0  0
    6.6516   -1.1488    0.0000 C   0  0  0  0  0  0  0  0  0  0  0  0
    4.6539   -2.3050    0.0000 C   0  0  0  0  0  0  0  0  0  0  0  0
    7.3175   -2.3050    0.0000 C   0  0  0  0  0  0  0  0  0  0  0  0
    5.3198   -3.4539    0.0000 C   0  0  0  0  0  0  0  0  0  0  0  0
    3.3295   -2.3050    0.0000 C   0  0  0  0  0  0  0  0  0  0  0  0
    6.6516   -3.4539    0.0000 C   0  0  0  0  0  0  0  0  0  0  0  0
    2.6636   -3.4539    0.0000 C   0  0  0  0  0  0  0  0  0  0  0  0
    1.3318   -3.4539    0.0000 C   0  0  0  0  0  0  0  0  0  0  0  0
    3.3295   -4.6100    0.0000 C   0  0  0  0  0  0  0  0  0  0  0  0
    0.0000   -3.4539    0.0000 N   0  0  0  0  0  0  0  0  0  0  0  0
    3.9880   -5.7589    0.0000 N   0  0  0  0  0  0  0  0  0  0  0  0
  1  2  1  0  0  0  0 
  2  3  2  0  0  0  0 
  2  4  1  0  0  0  0 
  3  5  1  0  0  0  0 
  4  6  2  0  0  0  0 
  4  7  1  0  0  0  0 
  5  8  2  0  0  0  0 
  8  6  1  0  0  0  0 
  7  9  2  0  0  0  0 
  9 10  1  0  0  0  0 
  9 11  1  0  0  0  0 
 10 12  3  0  0  0  0 
 11 13  3  0  0  0  0 
M  END
> <Name>
o-Chlorobenzylidenemalononitrile

> <Source>
DSSTox2DMolFile

> <Tox>
312.5

> <CAS>
2698-41-1

$$$$

  CDK

  9  9  0  0  0  0  0  0  0  0999 V2000
    0.0503    1.7109    0.0000 Cl  0  0  0  0  0  0  0  0  0  0  0  0
    0.5032    0.8555    0.0000 C   0  0  0  0  0  0  0  0  0  0  0  0
    0.0000    0.0000    0.0000 O   0  0  0  0  0  0  0  0  0  0  0  0
    1.5600    0.8555    0.0000 C   0  0  0  0  0  0  0  0  0  0  0  0
    2.0632    1.7109    0.0000 C   0  0  0  0  0  0  0  0  0  0  0  0
    2.0632    0.0000    0.0000 C   0  0  0  0  0  0  0  0  0  0  0  0
    3.0696    1.7109    0.0000 C   0  0  0  0  0  0  0  0  0  0  0  0
    3.0696    0.0000    0.0000 C   0  0  0  0  0  0  0  0  0  0  0  0
    3.5728    0.8555    0.0000 C   0  0  0  0  0  0  0  0  0  0  0  0
  1  2  1  0  0  0  0 
  2  3  2  0  0  0  0 
  2  4  1  0  0  0  0 
  5  4  1  0  0  0  0 
  4  6  1  0  0  0  0 
  7  5  1  0  0  0  0 
  6  8  1  0  0  0  0 
  9  7  1  0  0  0  0 
  8  9  1  0  0  0  0 
M  END
> <Name>
Cyclohexanecarbonyl chloride

> <Source>
NIST2DMolFile

> <Tox>
180

> <CAS>
2719-27-9

$$$$

  CDK

  8  7  0  0  0  0  0  0  0  0999 V2000
    1.7293    1.4750    0.0000 C   0  0  0  0  0  0  0  0  0  0  0  0
    2.5939    1.9836    0.0000 C   0  0  0  0  0  0  0  0  0  0  0  0
    0.9155    1.9836    0.0000 C   0  0  0  0  0  0  0  0  0  0  0  0
    1.7293    0.5086    0.0000 C   0  0  0  0  0  0  0  0  0  0  0  0
    2.5939    3.0008    0.0000 O   0  0  0  0  0  0  0  0  0  0  0  0
    3.4586    1.4750    0.0000 Cl  0  0  0  0  0  0  0  0  0  0  0  0
    0.0000    1.4750    0.0000 C   0  0  0  0  0  0  0  0  0  0  0  0
    0.8646    0.0000    0.0000 C   0  0  0  0  0  0  0  0  0  0  0  0
  1  2  1  0  0  0  0 
  1  3  1  0  0  0  0 
  1  4  1  0  0  0  0 
  2  5  2  0  0  0  0 
  2  6  1  0  0  0  0 
  3  7  1  0  0  0  0 
  4  8  1  0  0  0  0 
M  END
> <Name>
Butanoyl chloride, 2-ethyl-

> <Source>
NIST2DMolFile

> <Tox>
140

> <CAS>
2736-40-5

$$$$

  CDK

 10 11  0  0  0  0  0  0  0  0999 V2000
    3.9980    1.8491    0.0000 C   0  0  0  0  0  0  0  0  0  0  0  0
    3.4982    0.9995    0.0000 C   0  0  0  0  0  0  0  0  0  0  0  0
    3.9980    0.1499    0.0000 C   0  0  0  0  0  0  0  0  0  0  0  0
    2.5987    0.4997    0.0000 C   0  0  0  0  0  0  0  0  0  0  0  0
    2.5987    1.4992    0.0000 C   0  0  0  0  0  0  0  0  0  0  0  0
    1.7491    0.0000    0.0000 C   0  0  0  0  0  0  0  0  0  0  0  0
    1.7491    1.9990    0.0000 C   0  0  0  0  0  0  0  0  0  0  0  0
    0.8995    0.4997    0.0000 C   0  0  0  0  0  0  0  0  0  0  0  0
    0.8995    1.4992    0.0000 C   0  0  0  0  0  0  0  0  0  0  0  0
    0.0000    1.9990    0.0000 C   0  0  0  0  0  0  0  0  0  0  0  0
  1  2  1  0  0  0  0 
  2  3  1  0  0  0  0 
  2  4  1  0  0  0  0 
  5  2  1  0  0  0  0 
  4  5  1  0  0  0  0 
  4  6  1  0  0  0  0 
  7  5  1  0  0  0  0 
  6  8  1  0  0  0  0 
  9  7  1  0  0  0  0 
  8  9  1  0  0  0  0 
  9 10  1  0  0  0  0 
M  END
> <Name>
Bicyclo[4.1.0]heptane, 3,7,7-trimethyl-, [1S-(1.

> <Source>
NIST2DMolFile

> <Tox>
169

> <CAS>
2778-68-9

$$$$

  CDK

 11 10  0  0  0  0  0  0  0  0999 V2000
    2.6674    1.6022    1.7715 C   0  0  0  0  0  0  0  0  0  0  0  0
    1.8029    2.8293    2.0746 C   0  0  0  0  0  0  0  0  0  0  0  0
    3.4298    1.0541    2.9703 C   0  0  0  0  0  0  0  0  0  0  0  0
    2.6168    4.1255    2.1254 C   0  0  0  0  0  0  0  0  0  0  0  0
    0.6739    2.9364    1.0597 C   0  0  0  0  0  0  0  0  0  0  0  0
    4.6899    1.8378    3.3091 C   0  0  0  0  0  0  0  0  0  0  0  0
    3.4261    4.3979    0.8665 C   0  0  0  0  0  0  0  0  0  0  0  0
    5.6767    1.8638    2.1515 C   0  0  0  0  0  0  0  0  0  0  0  0
    4.3231    5.6026    1.0353 C   0  0  0  0  0  0  0  0  0  0  0  0
    6.8830    2.7472    2.4256 C   0  0  0  0  0  0  0  0  0  0  0  0
    7.8351    2.1449    3.4346 C   0  0  0  0  0  0  0  0  0  0  0  0
  1  2  1  0  0  0  0 
  1  3  1  0  0  0  0 
  2  4  1  0  0  0  0 
  2  5  1  0  0  0  0 
  3  6  1  0  0  0  0 
  4  7  1  0  0  0  0 
  6  8  1  0  0  0  0 
  7  9  1  0  0  0  0 
  8 10  1  0  0  0  0 
 10 11  1  0  0  0  0 
M  END
> <Name>
DECANE, 4-METHYL-

> <Source>
NIST3DMolFile

> <Tox>
187

> <CAS>
2847-72-5

$$$$

  CDK

 11 10  0  0  0  0  0  0  0  0999 V2000
    5.7499   -1.3288    0.0000 C   0  0  0  0  0  0  0  0  0  0  0  0
    6.9015   -1.9972    0.0000 C   0  0  0  0  0  0  0  0  0  0  0  0
    4.5983   -1.9972    0.0000 O   0  0  0  0  0  0  0  0  0  0  0  0
    5.7499   -0.0000    0.0000 O   0  0  0  0  0  0  0  0  0  0  0  0
    8.0531   -1.3288    0.0000 C   0  0  0  0  0  0  0  0  0  0  0  0
    6.9015   -3.3259    0.0000 C   0  0  0  0  0  0  0  0  0  0  0  0
    3.4548   -1.3288    0.0000 C   0  0  0  0  0  0  0  0  0  0  0  0
    2.3032   -1.9972    0.0000 C   0  0  0  0  0  0  0  0  0  0  0  0
    1.1516   -1.3288    0.0000 N   0  0  0  0  0  0  0  0  0  0  0  0
    1.1516   -0.0000    0.0000 C   0  0  0  0  0  0  0  0  0  0  0  0
    0.0000   -1.9972    0.0000 C   0  0  0  0  0  0  0  0  0  0  0  0
  1  2  1  0  0  0  0 
  1  3  1  0  0  0  0 
  1  4  2  0  0  0  0 
  2  5  2  0  0  0  0 
  2  6  1  0  0  0  0 
  3  7  1  0  0  0  0 
  7  8  1  0  0  0  0 
  8  9  1  0  0  0  0 
  9 10  1  0  0  0  0 
  9 11  1  0  0  0  0 
M  END
> <Name>
2-(DIMETHYLAMINO)ETHYL 2-METHYL-2-PROPENOATE

> <Source>
DSSTox2DMolFile

> <Tox>
186

> <CAS>
2867-47-2

$$$$

  CDK

  7  7  0  0  0  0  0  0  0  0999 V2000
    3.1944    1.1793    2.1565 C   0  0  0  0  0  0  0  0  0  0  0  0
    4.3544    1.9009    2.2406 O   0  0  0  0  0  0  0  0  0  0  0  0
    3.2117    0.0000    2.4515 O   0  0  0  0  0  0  0  0  0  0  0  0
    2.0406    2.0061    1.6906 C   0  0  0  0  0  0  0  0  0  0  0  0
    5.5292    1.2479    2.6706 C   0  0  0  0  0  0  0  0  0  0  0  0
    0.6671    1.7236    2.2438 C   0  0  0  0  0  0  0  0  0  0  0  0
    0.9821    1.3650    0.8286 C   0  0  0  0  0  0  0  0  0  0  0  0
  1  2  1  0  0  0  0 
  1  3  2  0  0  0  0 
  1  4  1  0  0  0  0 
  2  5  1  0  0  0  0 
  6  4  1  0  0  0  0 
  4  7  1  0  0  0  0 
  7  6  1  0  0  0  0 
M  END
> <Name>
Cyclopropanecarboxylic acid, methyl ester

> <Source>
NIST3DMolFile

> <Tox>
114.9

> <CAS>
2868-37-3

$$$$

  CDK

 14 15  0  0  0  0  0  0  0  0999 V2000
    5.3981    1.9960    2.1000 C   0  0  0  0  0  0  0  0  0  0  0  0
    5.7853    0.6025    2.5973 C   0  0  0  0  0  0  0  0  0  0  0  0
    6.6780    2.8172    1.9364 C   0  0  0  0  0  0  0  0  0  0  0  0
    4.6991    1.8739    0.7432 C   0  0  0  0  0  0  0  0  0  0  0  0
    4.4319    2.6741    3.0518 C   0  0  0  0  0  0  0  0  0  0  0  0
    3.5476    1.9328    3.7990 C   0  0  0  0  0  0  0  0  0  0  0  0
    4.3825    4.0899    3.1313 C   0  0  0  0  0  0  0  0  0  0  0  0
    2.5992    2.5611    4.6470 C   0  0  0  0  0  0  0  0  0  0  0  0
    3.4765    4.7235    3.9360 C   0  0  0  0  0  0  0  0  0  0  0  0
    2.5616    3.9691    4.7177 C   0  0  0  0  0  0  0  0  0  0  0  0
    1.6853    1.8001    5.4274 C   0  0  0  0  0  0  0  0  0  0  0  0
    1.6086    4.5974    5.5639 C   0  0  0  0  0  0  0  0  0  0  0  0
    0.7767    2.4298    6.2334 C   0  0  0  0  0  0  0  0  0  0  0  0
    0.7379    3.8426    6.3021 C   0  0  0  0  0  0  0  0  0  0  0  0
  1  2  1  0  0  0  0 
  1  3  1  0  0  0  0 
  1  4  1  0  0  0  0 
  1  5  1  0  0  0  0 
  5  6  2  0  0  0  0 
  7  5  1  0  0  0  0 
  6  8  1  0  0  0  0 
  9  7  2  0  0  0  0 
 10  8  2  0  0  0  0 
  8 11  1  0  0  0  0 
 10  9  1  0  0  0  0 
 12 10  1  0  0  0  0 
 11 13  2  0  0  0  0 
 14 12  2  0  0  0  0 
 13 14  1  0  0  0  0 
M  END
> <Name>
NAPHTHALENE, 2-(1,1-DIMETHYLETHYL)-

> <Source>
NIST3DMolFile

> <Tox>
276

> <CAS>
2876-35-9

$$$$

  CDK

 10 10  0  0  0  0  0  0  0  0999 V2000
    5.5771    2.5919    0.8833 C   0  0  0  0  0  0  0  0  0  0  0  0
    4.2920    2.0393    0.8898 C   0  0  0  0  0  0  0  0  0  0  0  0
    5.7395    3.9828    0.8786 C   0  0  0  0  0  0  0  0  0  0  0  0
    6.8119    1.7619    0.8820 C   0  0  0  0  0  0  0  0  0  0  0  0
    3.1822    2.9156    0.8914 C   0  0  0  0  0  0  0  0  0  0  0  0
    4.0655    0.5690    0.8944 C   0  0  0  0  0  0  0  0  0  0  0  0
    4.6412    4.8258    0.8808 C   0  0  0  0  0  0  0  0  0  0  0  0
    3.3529    4.3014    0.8873 C   0  0  0  0  0  0  0  0  0  0  0  0
    1.9523    2.2836    0.8958 O   0  0  0  0  0  0  0  0  0  0  0  0
    0.8032    3.0927    0.9104 C   0  0  0  0  0  0  0  0  0  0  0  0
  1  2  2  0  0  0  0 
  3  1  1  0  0  0  0 
  1  4  1  0  0  0  0 
  2  5  1  0  0  0  0 
  2  6  1  0  0  0  0 
  7  3  2  0  0  0  0 
  5  8  2  0  0  0  0 
  5  9  1  0  0  0  0 
  8  7  1  0  0  0  0 
  9 10  1  0  0  0  0 
M  END
> <Name>
2,3-Dimethylanisole

> <Source>
NIST3DMolFile

> <Tox>
199

> <CAS>
2944-49-2

$$$$

  CDK

 10 10  0  0  0  0  0  0  0  0999 V2000
    3.4540    0.8635    0.0000 C   0  0  0  0  0  0  0  0  0  0  0  0
    2.4381    0.8635    0.0000 C   0  0  0  0  0  0  0  0  0  0  0  0
    3.9619    1.7270    0.0000 C   0  0  0  0  0  0  0  0  0  0  0  0
    1.9809    1.7270    0.0000 C   0  0  0  0  0  0  0  0  0  0  0  0
    3.4540    2.5905    0.0000 C   0  0  0  0  0  0  0  0  0  0  0  0
    4.9778    1.7270    0.0000 C   0  0  0  0  0  0  0  0  0  0  0  0
    2.4381    2.5905    0.0000 C   0  0  0  0  0  0  0  0  0  0  0  0
    0.9651    1.7270    0.0000 C   0  0  0  0  0  0  0  0  0  0  0  0
    0.4571    0.8635    0.0000 C   0  0  0  0  0  0  0  0  0  0  0  0
    0.0000    0.0000    0.0000 N   0  0  0  0  0  0  0  0  0  0  0  0
  2  1  2  0  0  0  0 
  1  3  1  0  0  0  0 
  4  2  1  0  0  0  0 
  3  5  2  0  0  0  0 
  3  6  1  0  0  0  0 
  7  4  2  0  0  0  0 
  4  8  1  0  0  0  0 
  5  7  1  0  0  0  0 
  8  9  1  0  0  0  0 
  9 10  3  0  0  0  0 
M  END
> <Name>
BENZENEACETONITRILE, 4-METHYL-

> <Source>
NIST2DMolFile

> <Tox>
242.5

> <CAS>
2947-61-7

$$$$

  CDK

  9  9  0  0  0  0  0  0  0  0999 V2000
    1.7348    0.5102    0.0000 C   0  0  0  0  0  0  0  0  0  0  0  0
    1.7348    1.5307    0.0000 C   0  0  0  0  0  0  0  0  0  0  0  0
    0.8674    0.0000    0.0000 C   0  0  0  0  0  0  0  0  0  0  0  0
    0.8674    1.9899    0.0000 C   0  0  0  0  0  0  0  0  0  0  0  0
    2.6022    1.9899    0.0000 S   0  0  0  0  0  0  0  0  0  0  0  0
    0.0000    0.5102    0.0000 C   0  0  0  0  0  0  0  0  0  0  0  0
    0.0000    1.5307    0.0000 C   0  0  0  0  0  0  0  0  0  0  0  0
    0.8674    3.0104    0.0000 N   0  0  0  0  0  0  0  0  0  0  0  0
    3.4696    1.5307    0.0000 C   0  0  0  0  0  0  0  0  0  0  0  0
  2  1  2  0  0  0  0 
  1  3  1  0  0  0  0 
  4  2  1  0  0  0  0 
  2  5  1  0  0  0  0 
  3  6  2  0  0  0  0 
  7  4  2  0  0  0  0 
  4  8  1  0  0  0  0 
  5  9  1  0  0  0  0 
  6  7  1  0  0  0  0 
M  END
> <Name>
O-METHIOANILINE

> <Source>
NIST2DMolFile

> <Tox>
234

> <CAS>
2987-53-3

$$$$

  CDK

 10 10  0  0  0  0  0  0  0  0999 V2000
    5.3173   -2.3077    0.0000 N   0  0  0  0  0  0  0  0  0  0  0  0
    4.6527   -1.1539    0.0000 C   0  0  0  0  0  0  0  0  0  0  0  0
    3.9880   -0.0000    0.0000 S   0  0  0  0  0  0  0  0  0  0  0  0
    2.6587   -0.0000    0.0000 C   0  0  0  0  0  0  0  0  0  0  0  0
    1.9940   -1.1539    0.0000 C   0  0  0  0  0  0  0  0  0  0  0  0
    2.6587   -2.3077    0.0000 C   0  0  0  0  0  0  0  0  0  0  0  0
    0.6647   -1.1539    0.0000 C   0  0  0  0  0  0  0  0  0  0  0  0
    1.9940   -3.4563    0.0000 C   0  0  0  0  0  0  0  0  0  0  0  0
    0.0000   -2.3077    0.0000 C   0  0  0  0  0  0  0  0  0  0  0  0
    0.6647   -3.4563    0.0000 C   0  0  0  0  0  0  0  0  0  0  0  0
  1  2  3  0  0  0  0 
  2  3  1  0  0  0  0 
  3  4  1  0  0  0  0 
  4  5  1  0  0  0  0 
  5  6  2  0  0  0  0 
  5  7  1  0  0  0  0 
  6  8  1  0  0  0  0 
  9  7  2  0  0  0  0 
  8 10  2  0  0  0  0 
 10  9  1  0  0  0  0 
M  END
> <Name>
BENZYLTHIOCYANATE

> <Source>
DSSTox2DMolFile

> <Tox>
232

> <CAS>
3012-37-1

$$$$

  CDK

  7  7  0  0  0  0  0  0  0  0999 V2000
    5.1232    3.0436    1.4623 C   0  0  0  0  0  0  0  0  0  0  0  0
    4.1406    2.0013    1.9289 C   0  0  0  0  0  0  0  0  0  0  0  0
    4.3153    1.3647    2.9496 O   0  0  0  0  0  0  0  0  0  0  0  0
    2.9518    1.8026    1.0196 C   0  0  0  0  0  0  0  0  0  0  0  0
    1.8549    0.8097    1.4721 C   0  0  0  0  0  0  0  0  0  0  0  0
    1.9104    2.9497    1.0543 C   0  0  0  0  0  0  0  0  0  0  0  0
    0.8172    1.9489    1.4729 C   0  0  0  0  0  0  0  0  0  0  0  0
  1  2  1  0  0  0  0 
  2  3  2  0  0  0  0 
  2  4  1  0  0  0  0 
  4  5  1  0  0  0  0 
  6  4  1  0  0  0  0 
  5  7  1  0  0  0  0 
  7  6  1  0  0  0  0 
M  END
> <Name>
ETHANONE, 1-CYCLOBUTYL-

> <Source>
NIST3DMolFile

> <Tox>
138

> <CAS>
3019-25-8

$$$$

  CDK

  8  7  0  0  0  0  0  0  0  0999 V2000
    4.7635    3.5558    2.3566 O   0  0  0  0  0  0  0  0  0  0  0  0
    3.7111    3.0272    1.5601 C   0  0  0  0  0  0  0  0  0  0  0  0
    5.9162    2.7433    2.4134 C   0  0  0  0  0  0  0  0  0  0  0  0
    2.5282    3.9862    1.6731 C   0  0  0  0  0  0  0  0  0  0  0  0
    5.7729    1.5597    3.3706 C   0  0  0  0  0  0  0  0  0  0  0  0
    1.2831    3.3684    1.0536 C   0  0  0  0  0  0  0  0  0  0  0  0
    7.0883    0.8316    3.5188 C   0  0  0  0  0  0  0  0  0  0  0  0
    0.8191    2.1539    1.8283 C   0  0  0  0  0  0  0  0  0  0  0  0
  1  2  1  0  0  0  0 
  1  3  1  0  0  0  0 
  2  4  1  0  0  0  0 
  3  5  1  0  0  0  0 
  4  6  1  0  0  0  0 
  5  7  1  0  0  0  0 
  6  8  1  0  0  0  0 
M  END
> <Name>
BUTANE, 1-PROPOXY-

> <Source>
NIST3DMolFile

> <Tox>
118.1

> <CAS>
3073-92-5

$$$$

  CDK

  9  8  0  0  0  0  0  0  0  0999 V2000
    3.4423    2.8402    3.1069 C   0  0  0  0  0  0  0  0  0  0  0  0
    2.4315    1.7133    3.3976 C   0  0  0  0  0  0  0  0  0  0  0  0
    3.8976    3.6219    4.3265 C   0  0  0  0  0  0  0  0  0  0  0  0
    2.1844    0.9564    2.0694 C   0  0  0  0  0  0  0  0  0  0  0  0
    1.0775    2.2510    3.9021 C   0  0  0  0  0  0  0  0  0  0  0  0
    3.0405    0.7254    4.3914 C   0  0  0  0  0  0  0  0  0  0  0  0
    5.0147    4.5810    3.9874 C   0  0  0  0  0  0  0  0  0  0  0  0
    1.5825    1.8199    0.9815 C   0  0  0  0  0  0  0  0  0  0  0  0
    1.0027    2.6326    5.3634 C   0  0  0  0  0  0  0  0  0  0  0  0
  1  2  1  0  0  0  0 
  1  3  1  0  0  0  0 
  2  4  1  0  0  0  0 
  2  5  1  0  0  0  0 
  2  6  1  0  0  0  0 
  3  7  1  0  0  0  0 
  4  8  1  0  0  0  0 
  5  9  1  0  0  0  0 
M  END
> <Name>
HEXANE, 3-ETHYL-3-METHYL-

> <Source>
NIST3DMolFile

> <Tox>
140.6

> <CAS>
3074-76-8

$$$$

  CDK

  8  8  0  0  0  0  0  0  0  0999 V2000
    0.0000    0.0000    0.0000 Br  0  0  0  0  0  0  0  0  0  0  0  0
    1.4800    1.1800    0.0400 C   0  0  0  0  0  0  0  0  0  0  0  0
    1.4000    2.5800    0.1200 C   0  0  0  0  0  0  0  0  0  0  0  0
    2.8200    0.7400   -0.0200 C   0  0  0  0  0  0  0  0  0  0  0  0
    2.9200    3.3200    0.1200 S   0  0  0  0  0  0  0  0  0  0  0  0
   -0.1400    3.6800    0.2200 Br  0  0  0  0  0  0  0  0  0  0  0  0
    3.7200    1.8200    0.0200 C   0  0  0  0  0  0  0  0  0  0  0  0
    5.6000    1.7200   -0.0400 Br  0  0  0  0  0  0  0  0  0  0  0  0
  1  2  1  0  0  0  0 
  3  2  2  0  0  0  0 
  2  4  1  0  0  0  0 
  5  3  1  0  0  0  0 
  3  6  1  0  0  0  0 
  7  4  2  0  0  0  0 
  7  5  1  0  0  0  0 
  7  8  1  0  0  0  0 
M  END
> <Name>
Thiophene, 2,3,5-tribromo-

> <Source>
NIH3DMolFile

> <Tox>
260

> <CAS>
3141-24-0

$$$$

  CDK

  7  7  0  0  0  0  0  0  0  0999 V2000
    3.1066    0.0000    0.0000 Br  0  0  0  0  0  0  0  0  0  0  0  0
    2.3550    0.4510    0.0000 C   0  0  0  0  0  0  0  0  0  0  0  0
    1.5533    0.0000    0.0000 S   0  0  0  0  0  0  0  0  0  0  0  0
    2.3550    1.3529    0.0000 C   0  0  0  0  0  0  0  0  0  0  0  0
    0.7516    0.4510    0.0000 C   0  0  0  0  0  0  0  0  0  0  0  0
    0.7516    1.3529    0.0000 C   0  0  0  0  0  0  0  0  0  0  0  0
    0.0000    0.0000    0.0000 Br  0  0  0  0  0  0  0  0  0  0  0  0
  1  2  1  0  0  0  0 
  2  3  1  0  0  0  0 
  4  2  2  0  0  0  0 
  3  5  1  0  0  0  0 
  6  4  1  0  0  0  0 
  7  5  1  0  0  0  0 
  5  6  2  0  0  0  0 
M  END
> <Name>
2,5-DIBROMOTHIOPHENE

> <Source>
NIST2DMolFile

> <Tox>
210.3

> <CAS>
3141-27-3

$$$$

  CDK

  7  7  0  0  0  0  0  0  0  0999 V2000
    0.9091    0.9596    0.0000 C   0  0  0  0  0  0  0  0  0  0  0  0
    0.0000    1.3132    0.0000 Cl  0  0  0  0  0  0  0  0  0  0  0  0
    1.7678    1.5657    0.0000 S   0  0  0  0  0  0  0  0  0  0  0  0
    1.2627    0.0000    0.0000 C   0  0  0  0  0  0  0  0  0  0  0  0
    2.5759    0.9596    0.0000 C   0  0  0  0  0  0  0  0  0  0  0  0
    2.2223    0.0000    0.0000 C   0  0  0  0  0  0  0  0  0  0  0  0
    3.4850    1.2627    0.0000 Cl  0  0  0  0  0  0  0  0  0  0  0  0
  1  2  1  0  0  0  0 
  1  3  1  0  0  0  0 
  4  1  2  0  0  0  0 
  3  5  1  0  0  0  0 
  6  4  1  0  0  0  0 
  5  6  2  0  0  0  0 
  5  7  1  0  0  0  0 
M  END
> <Name>
2,5-DICHLOROTHIOPHENE

> <Source>
NIST2DMolFile

> <Tox>
162

> <CAS>
3172-52-9

$$$$

  CDK

  8  7  0  0  0  0  0  0  0  0999 V2000
    0.0000    1.0280    0.0000 C   0  0  0  0  0  0  0  0  0  0  0  0
    0.8738    1.4906    0.0000 C   0  0  0  0  0  0  0  0  0  0  0  0
    1.7990    1.0280    0.0000 C   0  0  0  0  0  0  0  0  0  0  0  0
    2.6728    1.4906    0.0000 C   0  0  0  0  0  0  0  0  0  0  0  0
    1.7990    0.0000    0.0000 Br  0  0  0  0  0  0  0  0  0  0  0  0
    3.4952    1.0280    0.0000 O   0  0  0  0  0  0  0  0  0  0  0  0
    2.6728    2.5186    0.0000 O   0  0  0  0  0  0  0  0  0  0  0  0
    4.3690    1.4906    0.0000 C   0  0  0  0  0  0  0  0  0  0  0  0
  1  2  1  0  0  0  0 
  2  3  1  0  0  0  0 
  3  4  1  0  0  0  0 
  3  5  1  0  0  0  0 
  4  6  1  0  0  0  0 
  4  7  2  0  0  0  0 
  6  8  1  0  0  0  0 
M  END
> <Name>
Butanoic acid, 2-bromo-, methyl ester

> <Source>
NIST2DMolFile

> <Tox>
168

> <CAS>
3196-15-4

$$$$

  CDK

 14 15  0  0  0  0  0  0  0  0999 V2000
    0.0000    4.3376    0.0000 C   0  0  0  0  0  0  0  0  0  0  0  0
    0.0000    2.9384    0.0000 C   0  0  0  0  0  0  0  0  0  0  0  0
    1.2127    5.0372    0.0000 C   0  0  0  0  0  0  0  0  0  0  0  0
    1.2127    2.2388    0.0000 C   0  0  0  0  0  0  0  0  0  0  0  0
    2.4253    4.3376    0.0000 C   0  0  0  0  0  0  0  0  0  0  0  0
    2.4253    2.9384    0.0000 C   0  0  0  0  0  0  0  0  0  0  0  0
    3.7313    4.7574    0.0000 O   0  0  0  0  0  0  0  0  0  0  0  0
    3.7313    2.5186    0.0000 C   0  0  0  0  0  0  0  0  0  0  0  0
    4.5708    3.6380    0.0000 C   0  0  0  0  0  0  0  0  0  0  0  0
    5.9700    3.6380    0.0000 C   0  0  0  0  0  0  0  0  0  0  0  0
    6.6696    2.4253    0.0000 O   0  0  0  0  0  0  0  0  0  0  0  0
    6.6696    4.8506    0.0000 O   0  0  0  0  0  0  0  0  0  0  0  0
    5.9700    1.2127    0.0000 C   0  0  0  0  0  0  0  0  0  0  0  0
    6.6696    0.0000    0.0000 C   0  0  0  0  0  0  0  0  0  0  0  0
  1  2  2  0  0  0  0 
  1  3  1  0  0  0  0 
  2  4  1  0  0  0  0 
  5  3  2  0  0  0  0 
  4  6  2  0  0  0  0 
  6  5  1  0  0  0  0 
  5  7  1  0  0  0  0 
  6  8  1  0  0  0  0 
  9  7  1  0  0  0  0 
  8  9  2  0  0  0  0 
  9 10  1  0  0  0  0 
 10 11  1  0  0  0  0 
 10 12  2  0  0  0  0 
 11 13  1  0  0  0  0 
 13 14  1  0  0  0  0 
M  END
> <Name>
2-BENZOFURANCARBOXYLIC ACID, ETHYL ESTER

> <Source>
IndexNet2DMolFile

> <Tox>
276

> <CAS>
3199-61-9

$$$$

  CDK

 10  9  0  0  0  0  0  0  0  0999 V2000
    0.0000    0.0000    0.0000 C   0  0  0  0  0  0  0  0  0  0  0  0
   -1.0200    0.7400   -0.8600 C   0  0  0  0  0  0  0  0  0  0  0  0
   -0.4200    1.2600   -2.1600 C   0  0  0  0  0  0  0  0  0  0  0  0
   -0.6000    0.2800   -3.2200 N   0  0  0  0  0  0  0  0  0  0  0  0
   -2.0000    0.2000   -3.6000 C   0  0  0  0  0  0  0  0  0  0  0  0
    0.2200    0.6200   -4.3800 C   0  0  0  0  0  0  0  0  0  0  0  0
   -2.5400   -1.2000   -3.3400 C   0  0  0  0  0  0  0  0  0  0  0  0
    0.4800   -0.6200   -5.2200 C   0  0  0  0  0  0  0  0  0  0  0  0
   -4.0600   -1.2800   -3.4600 C   0  0  0  0  0  0  0  0  0  0  0  0
   -0.5200   -0.7200   -6.2000 O   0  0  0  0  0  0  0  0  0  0  0  0
  1  2  1  0  0  0  0 
  2  3  1  0  0  0  0 
  3  4  1  0  0  0  0 
  4  5  1  0  0  0  0 
  4  6  1  0  0  0  0 
  5  7  1  0  0  0  0 
  6  8  1  0  0  0  0 
  7  9  1  0  0  0  0 
  8 10  1  0  0  0  0 
M  END
> <Name>
2-Dipropylamino-ethanol

> <Source>
NIH3DMolFile

> <Tox>
196

> <CAS>
3238-75-3

$$$$

  CDK

  9  9  0  0  0  0  0  0  0  0999 V2000
    0.0000    0.0000    0.0000 C   0  0  0  0  0  0  0  0  0  0  0  0
   -0.8800    1.1800   -0.1800 C   0  0  0  0  0  0  0  0  0  0  0  0
   -0.3400    2.4800   -0.2800 C   0  0  0  0  0  0  0  0  0  0  0  0
   -2.2600    1.0000   -0.2800 C   0  0  0  0  0  0  0  0  0  0  0  0
    1.3600    2.7600   -0.1800 Cl  0  0  0  0  0  0  0  0  0  0  0  0
   -1.1800    3.5800   -0.4400 C   0  0  0  0  0  0  0  0  0  0  0  0
   -3.1200    2.1000   -0.4400 C   0  0  0  0  0  0  0  0  0  0  0  0
   -2.7800   -0.2200   -0.2000 O   0  0  0  0  0  0  0  0  0  0  0  0
   -2.5800    3.4000   -0.5400 C   0  0  0  0  0  0  0  0  0  0  0  0
  1  2  1  0  0  0  0 
  2  3  2  0  0  0  0 
  2  4  1  0  0  0  0 
  3  5  1  0  0  0  0 
  3  6  1  0  0  0  0 
  7  4  2  0  0  0  0 
  4  8  1  0  0  0  0 
  6  9  2  0  0  0  0 
  9  7  1  0  0  0  0 
M  END
> <Name>
1-Methyl-2-chlorophenol

> <Source>
NIH3DMolFile

> <Tox>
225

> <CAS>
3260-87-5

$$$$

  CDK

  5  4  0  0  0  0  0  0  0  0999 V2000
    0.0000    0.0000    0.0000 Cl  0  0  0  0  0  0  0  0  0  0  0  0
    0.8781    0.4649    0.0000 C   0  0  0  0  0  0  0  0  0  0  0  0
    1.7045    0.0000    0.0000 S   0  0  0  0  0  0  0  0  0  0  0  0
    2.6343    0.4649    0.0000 C   0  0  0  0  0  0  0  0  0  0  0  0
    3.5124    0.9814    0.0000 N   0  0  0  0  0  0  0  0  0  0  0  0
  1  2  1  0  0  0  0 
  2  3  1  0  0  0  0 
  3  4  1  0  0  0  0 
  4  5  3  0  0  0  0 
M  END
> <Name>
Chloro-thiocyanato-methane

> <Source>
NIST2DMolFile

> <Tox>
185

> <CAS>
3268-79-9

$$$$

  CDK

  9  8  0  0  0  0  0  0  0  0999 V2000
   -1.7371   -0.5229    0.0000 O   0  0  0  0  0  0  0  0  0  0  0  0
   -0.9222   -0.3946    0.0000 C   0  0  0  0  0  0  0  0  0  0  0  0
   -1.0505    0.4204    0.0000 C   0  0  0  0  0  0  0  0  0  0  0  0
   -0.1072   -0.2662    0.0000 C   0  0  0  0  0  0  0  0  0  0  0  0
   -0.7938   -1.2095    0.0000 C   0  0  0  0  0  0  0  0  0  0  0  0
   -0.4089    0.9390    0.0000 C   0  0  0  0  0  0  0  0  0  0  0  0
    0.7077   -0.1379    0.0000 C   0  0  0  0  0  0  0  0  0  0  0  0
    0.5794    0.6771    0.0000 C   0  0  0  0  0  0  0  0  0  0  0  0
    1.5227   -0.0096    0.0000 C   0  0  0  0  0  0  0  0  0  0  0  0
  1  2  1  0  0  0  0 
  2  3  1  0  0  0  0 
  2  4  1  0  0  0  0 
  2  5  1  0  0  0  0 
  3  6  2  0  0  0  0 
  4  7  1  0  0  0  0 
  7  8  1  0  0  0  0 
  7  9  1  0  0  0  0 
M  END
> <Name>
1-Hexen-3-ol, 3,5-dimethyl-

> <Source>
Smiles

> <Tox>
146.5

> <CAS>
3329-48-4

$$$$

  CDK

 17 16  0  0  0  0  0  0  0  0999 V2000
   -1.8098   -0.1735   -1.7775 F   0  0  0  0  0  0  0  0  0  0  0  0
   -1.8307   -0.3646   -0.4325 C   0  0  0  0  0  0  0  0  0  0  0  0
   -2.8223   -1.2594   -0.1849 F   0  0  0  0  0  0  0  0  0  0  0  0
   -0.5079   -0.9652   -0.0088 C   0  0  0  0  0  0  0  0  0  0  0  0
   -2.1774    0.9420    0.2370 C   0  0  0  0  0  0  0  0  0  0  0  0
   -0.5331   -1.2170    1.3234 F   0  0  0  0  0  0  0  0  0  0  0  0
   -0.3114   -2.1453   -0.6456 F   0  0  0  0  0  0  0  0  0  0  0  0
    0.5731   -0.0881   -0.2963 O   0  0  0  0  0  0  0  0  0  0  0  0
   -1.2537    1.8926   -0.0164 F   0  0  0  0  0  0  0  0  0  0  0  0
   -3.3740    1.4051   -0.1824 F   0  0  0  0  0  0  0  0  0  0  0  0
   -2.2448    0.7849    1.5775 F   0  0  0  0  0  0  0  0  0  0  0  0
    1.8386   -0.6125    0.0857 C   0  0  0  0  0  0  0  0  0  0  0  0
    1.8165   -0.8409    1.4255 F   0  0  0  0  0  0  0  0  0  0  0  0
    2.9016    0.4144   -0.2034 C   0  0  0  0  0  0  0  0  0  0  0  0
    2.9706    0.6716   -1.5274 F   0  0  0  0  0  0  0  0  0  0  0  0
    4.1168   -0.0210    0.1929 F   0  0  0  0  0  0  0  0  0  0  0  0
    2.6479    1.5771    0.4330 F   0  0  0  0  0  0  0  0  0  0  0  0
  1  2  1  0  0  0  0 
  3  2  1  0  0  0  0 
  2  4  1  0  0  0  0 
  2  5  1  0  0  0  0 
  6  4  1  0  0  0  0 
  7  4  1  0  0  0  0 
  8  4  1  0  0  0  0 
  9  5  1  0  0  0  0 
 10  5  1  0  0  0  0 
 11  5  1  0  0  0  0 
  8 12  1  0  0  0  0 
 13 12  1  0  0  0  0 
 12 14  1  0  0  0  0 
 15 14  1  0  0  0  0 
 16 14  1  0  0  0  0 
 17 14  1  0  0  0  0 
M  END
> <Name>
Propane,1112233-hepta-F-3(1222-tetrafluoroEtO)

> <Source>
Chemidplus3DMolFile

> <Tox>
41

> <CAS>
3330-15-2

$$$$

  CDK

  8  8  0  0  0  0  0  0  0  0999 V2000
    5.3504    2.9586    1.1893 C   0  0  0  0  0  0  0  0  0  0  0  0
    5.3986    1.4570    1.4584 C   0  0  0  0  0  0  0  0  0  0  0  0
    3.8836    3.3382    0.9866 C   0  0  0  0  0  0  0  0  0  0  0  0
    3.9796    1.0380    1.8204 C   0  0  0  0  0  0  0  0  0  0  0  0
    3.0662    2.0467    1.1126 C   0  0  0  0  0  0  0  0  0  0  0  0
    1.7772    2.2322    1.8809 C   0  0  0  0  0  0  0  0  0  0  0  0
    1.5074    2.9970    2.7890 O   0  0  0  0  0  0  0  0  0  0  0  0
    0.7707    1.4069    1.5030 O   0  0  0  0  0  0  0  0  0  0  0  0
  1  2  1  0  0  0  0 
  3  1  1  0  0  0  0 
  2  4  1  0  0  0  0 
  5  3  1  0  0  0  0 
  4  5  1  0  0  0  0 
  5  6  1  0  0  0  0 
  6  7  2  0  0  0  0 
  6  8  1  0  0  0  0 
M  END
> <Name>
Cyclopentanecarboxylic acid

> <Source>
NIST3DMolFile

> <Tox>
212

> <CAS>
3400-45-1

$$$$

  CDK

  7  6  0  0  0  0  0  0  0  0999 V2000
    1.3960    1.7698    0.6308 C   0  0  0  0  0  0  0  0  0  0  0  0
    1.0045    1.6997    2.0907 C   0  0  0  0  0  0  0  0  0  0  0  0
    1.9738    2.4302    2.9494 C   0  0  0  0  0  0  0  0  0  0  0  0
    2.4958    1.9501    4.0860 C   0  0  0  0  0  0  0  0  0  0  0  0
    3.4585    2.7690    4.8905 C   0  0  0  0  0  0  0  0  0  0  0  0
    2.1741    0.6078    4.6352 C   0  0  0  0  0  0  0  0  0  0  0  0
    4.8935    2.4297    4.5454 C   0  0  0  0  0  0  0  0  0  0  0  0
  1  2  1  0  0  0  0 
  2  3  1  0  0  0  0 
  3  4  2  0  0  0  0 
  4  5  1  0  0  0  0 
  4  6  1  0  0  0  0 
  5  7  1  0  0  0  0 
M  END
> <Name>
3-METHYL-3-HEXENE

> <Source>
NIST3DMolFile

> <Tox>
112.5

> <CAS>
3404-65-7

$$$$

  CDK

  7  6  0  0  0  0  0  0  0  0999 V2000
    2.8170    0.7995    2.0985 C   0  0  0  0  0  0  0  0  0  0  0  0
    2.2847    1.8651    3.0797 C   0  0  0  0  0  0  0  0  0  0  0  0
    3.1508    1.3496    0.7288 C   0  0  0  0  0  0  0  0  0  0  0  0
    2.0571    1.1807    4.4028 C   0  0  0  0  0  0  0  0  0  0  0  0
    3.3269    2.9615    3.3101 C   0  0  0  0  0  0  0  0  0  0  0  0
    1.0162    2.4904    2.5046 C   0  0  0  0  0  0  0  0  0  0  0  0
    0.9192    1.1551    5.0843 C   0  0  0  0  0  0  0  0  0  0  0  0
  1  2  1  0  0  0  0 
  1  3  1  0  0  0  0 
  2  4  1  0  0  0  0 
  2  5  1  0  0  0  0 
  2  6  1  0  0  0  0 
  4  7  2  0  0  0  0 
M  END
> <Name>
3,3-DIMETHYL-1-PENTENE

> <Source>
NIST3DMolFile

> <Tox>
77.5

> <CAS>
3404-73-7

$$$$

  CDK

 11 11  0  0  0  0  0  0  0  0999 V2000
    0.0000    1.7152    0.0000 N   0  0  0  0  0  0  0  0  0  0  0  0
    0.5197    0.8836    0.0000 C   0  0  0  0  0  0  0  0  0  0  0  0
    0.0000    0.0000    0.0000 O   0  0  0  0  0  0  0  0  0  0  0  0
    1.5592    0.8836    0.0000 C   0  0  0  0  0  0  0  0  0  0  0  0
    2.0270    0.0000    0.0000 C   0  0  0  0  0  0  0  0  0  0  0  0
    2.0270    1.7152    0.0000 C   0  0  0  0  0  0  0  0  0  0  0  0
    3.0145    0.0000    0.0000 C   0  0  0  0  0  0  0  0  0  0  0  0
    3.0145    1.7152    0.0000 C   0  0  0  0  0  0  0  0  0  0  0  0
    3.5343    0.8836    0.0000 C   0  0  0  0  0  0  0  0  0  0  0  0
    4.5737    0.8836    0.0000 O   0  0  0  0  0  0  0  0  0  0  0  0
    5.0935    1.7152    0.0000 C   0  0  0  0  0  0  0  0  0  0  0  0
  1  2  1  0  0  0  0 
  2  3  2  0  0  0  0 
  2  4  1  0  0  0  0 
  4  5  2  0  0  0  0 
  6  4  1  0  0  0  0 
  5  7  1  0  0  0  0 
  8  6  2  0  0  0  0 
  7  9  2  0  0  0  0 
  9  8  1  0  0  0  0 
  9 10  1  0  0  0  0 
 10 11  1  0  0  0  0 
M  END
> <Name>
P-METHYOXYBENZAMIDE

> <Source>
NIST2DMolFile

> <Tox>
295

> <CAS>
3424-93-9

$$$$

  CDK

  7  7  0  0  0  0  0  0  0  0999 V2000
    0.0000    1.4859    0.0000 C   0  0  0  0  0  0  0  0  0  0  0  0
    0.8711    1.9983    0.0000 C   0  0  0  0  0  0  0  0  0  0  0  0
    0.0000    0.5124    0.0000 N   0  0  0  0  0  0  0  0  0  0  0  0
    1.7421    1.4859    0.0000 C   0  0  0  0  0  0  0  0  0  0  0  0
    0.8711    0.0000    0.0000 C   0  0  0  0  0  0  0  0  0  0  0  0
    1.7421    0.5124    0.0000 N   0  0  0  0  0  0  0  0  0  0  0  0
    2.6132    1.9983    0.0000 C   0  0  0  0  0  0  0  0  0  0  0  0
  1  2  2  0  0  0  0 
  3  1  1  0  0  0  0 
  2  4  1  0  0  0  0 
  5  3  2  0  0  0  0 
  4  6  2  0  0  0  0 
  4  7  1  0  0  0  0 
  6  5  1  0  0  0  0 
M  END
> <Name>
4-METHYLPYRIMIDINE

> <Source>
NIST2DMolFile

> <Tox>
142

> <CAS>
3438-46-8

$$$$

  CDK

  9  9  0  0  0  0  0  0  0  0999 V2000
    1.5855    1.7901    0.0000 N   0  0  0  0  0  0  0  0  0  0  0  0
    0.9718    2.6085    0.0000 C   0  0  0  0  0  0  0  0  0  0  0  0
    0.9718    0.9718    0.0000 C   0  0  0  0  0  0  0  0  0  0  0  0
    2.5573    1.7901    0.0000 C   0  0  0  0  0  0  0  0  0  0  0  0
    0.0000    2.2504    0.0000 C   0  0  0  0  0  0  0  0  0  0  0  0
    0.0000    1.2787    0.0000 C   0  0  0  0  0  0  0  0  0  0  0  0
    1.2787    0.0000    0.0000 O   0  0  0  0  0  0  0  0  0  0  0  0
    3.0688    0.9718    0.0000 C   0  0  0  0  0  0  0  0  0  0  0  0
    4.0405    0.9718    0.0000 O   0  0  0  0  0  0  0  0  0  0  0  0
  1  2  1  0  0  0  0 
  3  1  1  0  0  0  0 
  1  4  1  0  0  0  0 
  2  5  1  0  0  0  0 
  6  3  1  0  0  0  0 
  3  7  2  0  0  0  0 
  4  8  1  0  0  0  0 
  5  6  1  0  0  0  0 
  9  8  1  0  0  0  0 
M  END
> <Name>
2-Pyrrolidinone, 1-(2-hydroxyethyl)-

> <Source>
NIST2DMolFile

> <Tox>
295

> <CAS>
3445-11-2

$$$$

  CDK

 10 10  0  0  0  0  0  0  0  0999 V2000
    2.4253    2.0988    0.0000 C   0  0  0  0  0  0  0  0  0  0  0  0
    2.4253    0.6996    0.0000 C   0  0  0  0  0  0  0  0  0  0  0  0
    3.6380    2.7984    0.0000 C   0  0  0  0  0  0  0  0  0  0  0  0
    3.6380    0.0000    0.0000 C   0  0  0  0  0  0  0  0  0  0  0  0
    1.2127    0.0000    0.0000 C   0  0  0  0  0  0  0  0  0  0  0  0
    4.8506    2.0988    0.0000 C   0  0  0  0  0  0  0  0  0  0  0  0
    4.8506    0.6996    0.0000 C   0  0  0  0  0  0  0  0  0  0  0  0
    0.0000    0.6996    0.0000 C   0  0  0  0  0  0  0  0  0  0  0  0
    6.0633    2.7984    0.0000 C   0  0  0  0  0  0  0  0  0  0  0  0
    7.2760    2.0988    0.0000 C   0  0  0  0  0  0  0  0  0  0  0  0
  1  2  2  0  0  0  0 
  1  3  1  0  0  0  0 
  2  4  1  0  0  0  0 
  2  5  1  0  0  0  0 
  6  3  2  0  0  0  0 
  4  7  2  0  0  0  0 
  5  8  1  0  0  0  0 
  7  6  1  0  0  0  0 
  6  9  1  0  0  0  0 
  9 10  2  0  0  0  0 
M  END
> <Name>
P-ETHYLSTYRENE

> <Source>
IndexNet2DMolFile

> <Tox>
192.3

> <CAS>
3454-07-7

$$$$

  CDK

 10 10  0  0  0  0  0  0  0  0999 V2000
    3.5138    0.9166    0.0000 C   0  0  0  0  0  0  0  0  0  0  0  0
    2.5462    0.9166    0.0000 C   0  0  0  0  0  0  0  0  0  0  0  0
    4.0230    1.7314    0.0000 C   0  0  0  0  0  0  0  0  0  0  0  0
    2.0370    1.7314    0.0000 C   0  0  0  0  0  0  0  0  0  0  0  0
    3.5138    2.6480    0.0000 C   0  0  0  0  0  0  0  0  0  0  0  0
    5.0415    1.7314    0.0000 N   0  0  0  0  0  0  0  0  0  0  0  0
    2.5462    2.6480    0.0000 C   0  0  0  0  0  0  0  0  0  0  0  0
    1.0185    1.7314    0.0000 C   0  0  0  0  0  0  0  0  0  0  0  0
    0.5602    0.9166    0.0000 C   0  0  0  0  0  0  0  0  0  0  0  0
    0.0000    0.0000    0.0000 N   0  0  0  0  0  0  0  0  0  0  0  0
  2  1  2  0  0  0  0 
  1  3  1  0  0  0  0 
  4  2  1  0  0  0  0 
  3  5  2  0  0  0  0 
  3  6  1  0  0  0  0 
  7  4  2  0  0  0  0 
  4  8  1  0  0  0  0 
  5  7  1  0  0  0  0 
  8  9  1  0  0  0  0 
  9 10  3  0  0  0  0 
M  END
> <Name>
(4-Amino-phenyl)-acetonitrile

> <Source>
NIST2DMolFile

> <Tox>
312

> <CAS>
3544-25-0

$$$$

  CDK

 14 15  0  0  0  0  0  0  0  0999 V2000
    6.9103   -0.6693    0.0000 C   0  0  0  0  0  0  0  0  0  0  0  0
    6.9103   -1.9997    0.0000 C   0  0  0  0  0  0  0  0  0  0  0  0
    5.7572   -0.0000    0.0000 C   0  0  0  0  0  0  0  0  0  0  0  0
    8.0633   -0.0000    0.0000 C   0  0  0  0  0  0  0  0  0  0  0  0
    5.7572   -2.6609    0.0000 C   0  0  0  0  0  0  0  0  0  0  0  0
    4.6041   -0.6693    0.0000 C   0  0  0  0  0  0  0  0  0  0  0  0
    4.6041   -1.9997    0.0000 C   0  0  0  0  0  0  0  0  0  0  0  0
    3.4430   -0.0000    0.0000 O   0  0  0  0  0  0  0  0  0  0  0  0
    2.2900   -0.6693    0.0000 C   0  0  0  0  0  0  0  0  0  0  0  0
    2.2900   -1.9997    0.0000 C   0  0  0  0  0  0  0  0  0  0  0  0
    1.1531   -0.0000    0.0000 C   0  0  0  0  0  0  0  0  0  0  0  0
    1.1531   -2.6609    0.0000 C   0  0  0  0  0  0  0  0  0  0  0  0
    0.0000   -0.6693    0.0000 C   0  0  0  0  0  0  0  0  0  0  0  0
    0.0000   -1.9997    0.0000 C   0  0  0  0  0  0  0  0  0  0  0  0
  1  2  2  0  0  0  0 
  1  3  1  0  0  0  0 
  1  4  1  0  0  0  0 
  2  5  1  0  0  0  0 
  6  3  2  0  0  0  0 
  5  7  2  0  0  0  0 
  7  6  1  0  0  0  0 
  6  8  1  0  0  0  0 
  8  9  1  0  0  0  0 
  9 10  2  0  0  0  0 
  9 11  1  0  0  0  0 
 10 12  1  0  0  0  0 
 11 13  2  0  0  0  0 
 12 14  2  0  0  0  0 
 13 14  1  0  0  0  0 
M  END
> <Name>
Benzene, 1-methyl-3-phenoxy-

> <Source>
DSSTox2DMolFile

> <Tox>
272

> <CAS>
3586-14-9

$$$$

  CDK

  9  9  0  0  0  0  0  0  0  0999 V2000
    2.7245    1.9346    2.9759 C   0  0  0  0  0  0  0  0  0  0  0  0
    1.9777    3.0817    2.3776 C   0  0  0  0  0  0  0  0  0  0  0  0
    4.2335    2.0467    2.7657 C   0  0  0  0  0  0  0  0  0  0  0  0
    2.5764    4.2203    2.0069 C   0  0  0  0  0  0  0  0  0  0  0  0
    0.5106    2.8873    2.2351 C   0  0  0  0  0  0  0  0  0  0  0  0
    4.6905    3.4643    3.0997 C   0  0  0  0  0  0  0  0  0  0  0  0
    4.9713    1.0176    3.6002 C   0  0  0  0  0  0  0  0  0  0  0  0
    4.0480    4.4553    2.1289 C   0  0  0  0  0  0  0  0  0  0  0  0
    4.6937    4.3396    0.7540 C   0  0  0  0  0  0  0  0  0  0  0  0
  1  2  1  0  0  0  0 
  3  1  1  0  0  0  0 
  2  4  2  0  0  0  0 
  2  5  1  0  0  0  0 
  6  3  1  0  0  0  0 
  3  7  1  0  0  0  0 
  4  8  1  0  0  0  0 
  8  6  1  0  0  0  0 
  8  9  1  0  0  0  0 
M  END
> <Name>
CIS,TRANS-1,3,5-TRIMETHYLCYCLOHEXANE

> <Source>
NIST3DMolFile

> <Tox>
141

> <CAS>
3643-64-9

$$$$

  CDK

  8  8  0  0  0  0  0  0  0  0999 V2000
    0.0000    3.5000    0.0000 C   0  0  0  0  0  0  0  0  0  0  0  0
    0.0000    2.1000    0.0000 C   0  0  0  0  0  0  0  0  0  0  0  0
    1.2133    4.2000    0.0000 N   0  0  0  0  0  0  0  0  0  0  0  0
    1.2133    1.4000    0.0000 C   0  0  0  0  0  0  0  0  0  0  0  0
    2.3800    3.5000    0.0000 C   0  0  0  0  0  0  0  0  0  0  0  0
    2.3800    2.1000    0.0000 C   0  0  0  0  0  0  0  0  0  0  0  0
    1.2133    0.0000    0.0000 C   0  0  0  0  0  0  0  0  0  0  0  0
    3.5933    4.2000    0.0000 Cl  0  0  0  0  0  0  0  0  0  0  0  0
  1  2  2  0  0  0  0 
  1  3  1  0  0  0  0 
  2  4  1  0  0  0  0 
  5  3  2  0  0  0  0 
  4  6  2  0  0  0  0 
  4  7  1  0  0  0  0 
  6  5  1  0  0  0  0 
  5  8  1  0  0  0  0 
M  END
> <Name>
PYRIDINE, 2-CHLORO-4-METHYL-

> <Source>
IndexNet2DMolFile

> <Tox>
192

> <CAS>
3678-62-4

$$$$

  CDK

  7  6  0  0  0  0  0  0  0  0999 V2000
    5.6750    0.9543    1.2799 C   0  0  0  0  0  0  0  0  0  0  0  0
    4.2436    1.2253    0.8743 C   0  0  0  0  0  0  0  0  0  0  0  0
    3.4217    1.8456    2.0085 C   0  0  0  0  0  0  0  0  0  0  0  0
    3.0539    0.8137    3.0646 C   0  0  0  0  0  0  0  0  0  0  0  0
    2.1688    2.4358    1.4395 C   0  0  0  0  0  0  0  0  0  0  0  0
    1.8643    3.7295    1.5482 C   0  0  0  0  0  0  0  0  0  0  0  0
    0.6262    4.3165    0.9895 C   0  0  0  0  0  0  0  0  0  0  0  0
  1  2  1  0  0  0  0 
  2  3  1  0  0  0  0 
  3  4  1  0  0  0  0 
  3  5  1  0  0  0  0 
  5  6  2  0  0  0  0 
  6  7  1  0  0  0  0 
M  END
> <Name>
2-HEXENE, 4-METHYL-, (E)-

> <Source>
NIST3DMolFile

> <Tox>
87.6

> <CAS>
3683-22-5

$$$$

  CDK

  8  7  0  0  0  0  0  0  0  0999 V2000
    5.4046    3.6279    1.6738 C   0  0  0  0  0  0  0  0  0  0  0  0
    4.1784    2.8723    2.1601 C   0  0  0  0  0  0  0  0  0  0  0  0
    6.6573    3.2374    2.4442 C   0  0  0  0  0  0  0  0  0  0  0  0
    2.9373    3.2703    1.3750 C   0  0  0  0  0  0  0  0  0  0  0  0
    7.0871    1.8417    2.1546 C   0  0  0  0  0  0  0  0  0  0  0  0
    1.7337    2.5522    1.8757 C   0  0  0  0  0  0  0  0  0  0  0  0
    7.5295    1.0100    3.0906 C   0  0  0  0  0  0  0  0  0  0  0  0
    0.8820    1.9179    1.0788 C   0  0  0  0  0  0  0  0  0  0  0  0
  1  2  1  0  0  0  0 
  1  3  1  0  0  0  0 
  2  4  1  0  0  0  0 
  3  5  1  0  0  0  0 
  4  6  1  0  0  0  0 
  5  7  2  0  0  0  0 
  6  8  2  0  0  0  0 
M  END
> <Name>
1,7-Octadiene

> <Source>
NIST3DMolFile

> <Tox>
115.5

> <CAS>
3710-30-3

$$$$

  CDK

  7  7  0  0  0  0  0  0  0  0999 V2000
    2.5319    3.0474    0.7273 C   0  0  0  0  0  0  0  0  0  0  0  0
    2.0045    1.7482    1.0691 C   0  0  0  0  0  0  0  0  0  0  0  0
    3.8734    3.0111    1.0261 C   0  0  0  0  0  0  0  0  0  0  0  0
    3.0636    1.0140    1.5493 C   0  0  0  0  0  0  0  0  0  0  0  0
    0.6045    1.3264    0.9250 C   0  0  0  0  0  0  0  0  0  0  0  0
    4.2166    1.7643    1.5331 O   0  0  0  0  0  0  0  0  0  0  0  0
    4.9380    4.0214    0.9053 C   0  0  0  0  0  0  0  0  0  0  0  0
  2  1  1  0  0  0  0 
  1  3  2  0  0  0  0 
  4  2  2  0  0  0  0 
  2  5  1  0  0  0  0 
  3  6  1  0  0  0  0 
  3  7  1  0  0  0  0 
  6  4  1  0  0  0  0 
M  END
> <Name>
2,4-DIMETHYLFURAN

> <Source>
NIST3DMolFile

> <Tox>
94

> <CAS>
3710-43-8

$$$$

  CDK

  6  5  0  0  0  0  0  0  0  0999 V2000
    1.1553   -1.3355    0.0000 C   0  0  0  0  0  0  0  0  0  0  0  0
    2.3105   -1.9917    0.0000 C   0  0  0  0  0  0  0  0  0  0  0  0
    0.0000   -1.9917    0.0000 O   0  0  0  0  0  0  0  0  0  0  0  0
    1.1553   -0.0000    0.0000 O   0  0  0  0  0  0  0  0  0  0  0  0
    3.4658   -1.3355    0.0000 C   0  0  0  0  0  0  0  0  0  0  0  0
    4.6211   -1.9917    0.0000 C   0  0  0  0  0  0  0  0  0  0  0  0
  1  2  1  0  0  0  0 
  1  3  1  0  0  0  0 
  1  4  2  0  0  0  0 
  2  5  2  0  0  0  0 
  5  6  1  0  0  0  0 
M  END
> <Name>
CROTONIC ACID

> <Source>
DSSTox2DMolFile

> <Tox>
185

> <CAS>
3724-65-0

$$$$

  CDK

 10 10  0  0  0  0  0  0  0  0999 V2000
    0.7558    1.4395    2.9513 C   0  0  0  0  0  0  0  0  0  0  0  0
    1.0591    0.8520    4.3225 C   0  0  0  0  0  0  0  0  0  0  0  0
    1.9579    1.9958    2.2034 C   0  0  0  0  0  0  0  0  0  0  0  0
    1.5954    1.8639    5.3286 C   0  0  0  0  0  0  0  0  0  0  0  0
    3.0471    0.9602    1.9682 C   0  0  0  0  0  0  0  0  0  0  0  0
    1.5352    1.3277    6.7626 C   0  0  0  0  0  0  0  0  0  0  0  0
    3.0685    2.2236    5.1072 C   0  0  0  0  0  0  0  0  0  0  0  0
    4.0828    1.4561    0.9852 C   0  0  0  0  0  0  0  0  0  0  0  0
    2.6686    2.0109    7.5212 C   0  0  0  0  0  0  0  0  0  0  0  0
    3.6560    2.5339    6.4785 C   0  0  0  0  0  0  0  0  0  0  0  0
  1  2  1  0  0  0  0 
  1  3  1  0  0  0  0 
  2  4  1  0  0  0  0 
  3  5  1  0  0  0  0 
  6  4  1  0  0  0  0 
  4  7  1  0  0  0  0 
  5  8  1  0  0  0  0 
  9  6  1  0  0  0  0 
 10  7  1  0  0  0  0 
 10  9  1  0  0  0  0 
M  END
> <Name>
CYCLOPENTANE, PENTYL-

> <Source>
NIST3DMolFile

> <Tox>
180

> <CAS>
3741-00-2

$$$$

  CDK

  8  8  0  0  0  0  0  0  0  0999 V2000
   -0.0857   -1.1587    0.0000 N   0  0  0  0  0  0  0  0  0  0  0  0
    0.6288   -0.7462    0.0000 C   0  0  0  0  0  0  0  0  0  0  0  0
   -0.8001   -0.7462    0.0000 C   0  0  0  0  0  0  0  0  0  0  0  0
    1.3433   -1.1587    0.0000 O   0  0  0  0  0  0  0  0  0  0  0  0
    0.6288    0.0788    0.0000 C   0  0  0  0  0  0  0  0  0  0  0  0
   -0.8001    0.0788    0.0000 C   0  0  0  0  0  0  0  0  0  0  0  0
    1.1895    0.6840    0.0000 C   0  0  0  0  0  0  0  0  0  0  0  0
   -0.0857    0.4913    0.0000 C   0  0  0  0  0  0  0  0  0  0  0  0
  1  2  1  0  0  0  0 
  1  3  1  0  0  0  0 
  2  4  2  0  0  0  0 
  2  5  1  0  0  0  0 
  6  3  1  0  0  0  0 
  5  7  1  0  0  0  0 
  5  8  1  0  0  0  0 
  8  6  1  0  0  0  0 
M  END
> <Name>
3-Methyl-piperidin-2-one

> <Source>
Smiles

> <Tox>
249.5

> <CAS>
3768-43-2

$$$$

  CDK

 10 10  0  0  0  0  0  0  0  0999 V2000
    0.0000    3.4981    0.0000 C   0  0  0  0  0  0  0  0  0  0  0  0
    0.0000    2.0988    0.0000 C   0  0  0  0  0  0  0  0  0  0  0  0
    1.2127    4.1977    0.0000 N   0  0  0  0  0  0  0  0  0  0  0  0
    1.2127    1.3992    0.0000 C   0  0  0  0  0  0  0  0  0  0  0  0
    2.3787    3.4981    0.0000 C   0  0  0  0  0  0  0  0  0  0  0  0
    2.3787    2.0988    0.0000 C   0  0  0  0  0  0  0  0  0  0  0  0
    3.5913    1.3992    0.0000 C   0  0  0  0  0  0  0  0  0  0  0  0
    4.8040    2.0988    0.0000 F   0  0  0  0  0  0  0  0  0  0  0  0
    3.5913    0.0000    0.0000 F   0  0  0  0  0  0  0  0  0  0  0  0
    4.8040    0.6996    0.0000 F   0  0  0  0  0  0  0  0  0  0  0  0
  1  2  2  0  0  0  0 
  1  3  1  0  0  0  0 
  2  4  1  0  0  0  0 
  5  3  2  0  0  0  0 
  4  6  2  0  0  0  0 
  6  5  1  0  0  0  0 
  6  7  1  0  0  0  0 
  7  8  1  0  0  0  0 
  7  9  1  0  0  0  0 
  7 10  1  0  0  0  0 
M  END
> <Name>
3-Trifluoromethylpyridine

> <Source>
IndexNet2DMolFile

> <Tox>
114

> <CAS>
3796-23-4

$$$$

  CDK

  8  7  0  0  0  0  0  0  0  0999 V2000
    0.0000    0.0000    0.0000 C   0  0  0  0  0  0  0  0  0  0  0  0
   -1.0800    0.8400    0.3200 O   0  0  0  0  0  0  0  0  0  0  0  0
   -2.1800    0.1400    0.8800 C   0  0  0  0  0  0  0  0  0  0  0  0
   -1.7600   -0.3400    2.2600 C   0  0  0  0  0  0  0  0  0  0  0  0
   -1.3000    0.7800    3.1600 C   0  0  0  0  0  0  0  0  0  0  0  0
   -0.3400    1.4400    2.8800 O   0  0  0  0  0  0  0  0  0  0  0  0
   -2.0400    1.0000    4.2400 O   0  0  0  0  0  0  0  0  0  0  0  0
   -1.5600    2.0800    5.0200 C   0  0  0  0  0  0  0  0  0  0  0  0
  1  2  1  0  0  0  0 
  2  3  1  0  0  0  0 
  3  4  1  0  0  0  0 
  4  5  1  0  0  0  0 
  5  6  2  0  0  0  0 
  5  7  1  0  0  0  0 
  7  8  1  0  0  0  0 
M  END
> <Name>
Propanoic acid, 3-methoxy-, methyl ester

> <Source>
NIH3DMolFile

> <Tox>
142.8

> <CAS>
3852-09-3

$$$$

  CDK

 18 20  0  0  0  0  0  0  0  0999 V2000
    1.3046    4.3152    0.0000 C   0  0  0  0  0  0  0  0  0  0  0  0
    0.8028    3.4622    0.0000 C   0  0  0  0  0  0  0  0  0  0  0  0
    2.2580    4.3152    0.0000 C   0  0  0  0  0  0  0  0  0  0  0  0
    1.3046    2.5590    0.0000 C   0  0  0  0  0  0  0  0  0  0  0  0
    2.7597    3.4622    0.0000 C   0  0  0  0  0  0  0  0  0  0  0  0
    2.2580    2.5590    0.0000 C   0  0  0  0  0  0  0  0  0  0  0  0
    0.9534    1.6057    0.0000 C   0  0  0  0  0  0  0  0  0  0  0  0
    2.5590    1.6057    0.0000 C   0  0  0  0  0  0  0  0  0  0  0  0
    1.8064    1.0035    0.0000 C   0  0  0  0  0  0  0  0  0  0  0  0
    0.0000    1.3046    0.0000 C   0  0  0  0  0  0  0  0  0  0  0  0
    0.9534    0.6021    0.0000 C   0  0  0  0  0  0  0  0  0  0  0  0
    3.5124    1.2544    0.0000 C   0  0  0  0  0  0  0  0  0  0  0  0
    2.7095    0.6021    0.0000 C   0  0  0  0  0  0  0  0  0  0  0  0
    4.2650    1.9569    0.0000 C   0  0  0  0  0  0  0  0  0  0  0  0
    3.7131    0.3011    0.0000 C   0  0  0  0  0  0  0  0  0  0  0  0
    5.2184    1.6057    0.0000 C   0  0  0  0  0  0  0  0  0  0  0  0
    4.6664    0.0000    0.0000 C   0  0  0  0  0  0  0  0  0  0  0  0
    5.4191    0.6523    0.0000 C   0  0  0  0  0  0  0  0  0  0  0  0
  1  2  2  0  0  0  0 
  3  1  1  0  0  0  0 
  2  4  1  0  0  0  0 
  5  3  2  0  0  0  0 
  6  4  2  0  0  0  0 
  4  7  1  0  0  0  0 
  6  5  1  0  0  0  0 
  8  6  1  0  0  0  0 
  7  9  1  0  0  0  0 
  7 10  1  0  0  0  0 
  7 11  1  0  0  0  0 
  8 12  1  0  0  0  0 
  8 13  1  0  0  0  0 
  9  8  1  0  0  0  0 
 14 12  2  0  0  0  0 
 12 15  1  0  0  0  0 
 16 14  1  0  0  0  0 
 15 17  2  0  0  0  0 
 18 16  2  0  0  0  0 
 17 18  1  0  0  0  0 
M  END
> <Name>
1H-Indene, 2,3-dihydro-1,1,3-trimethyl-3-phenyl-

> <Source>
NIST2DMolFile

> <Tox>
308.5

> <CAS>
3910-35-8

$$$$

  CDK

 11 11  0  0  0  0  0  0  0  0999 V2000
    2.1791    1.8696    2.5094 C   0  0  0  0  0  0  0  0  0  0  0  0
    2.3368    2.2334    3.9886 C   0  0  0  0  0  0  0  0  0  0  0  0
    3.3315    0.9801    2.0388 C   0  0  0  0  0  0  0  0  0  0  0  0
    0.8481    1.1704    2.2807 C   0  0  0  0  0  0  0  0  0  0  0  0
    3.4399    3.2183    4.2084 C   0  0  0  0  0  0  0  0  0  0  0  0
    3.2979    0.7807    0.5398 C   0  0  0  0  0  0  0  0  0  0  0  0
    4.6574    2.8061    4.7528 C   0  0  0  0  0  0  0  0  0  0  0  0
    3.2556    4.5620    3.8760 C   0  0  0  0  0  0  0  0  0  0  0  0
    5.6756    3.7286    4.9661 C   0  0  0  0  0  0  0  0  0  0  0  0
    4.2761    5.4807    4.0897 C   0  0  0  0  0  0  0  0  0  0  0  0
    5.4863    5.0660    4.6359 C   0  0  0  0  0  0  0  0  0  0  0  0
  1  2  1  0  0  0  0 
  1  3  1  0  0  0  0 
  1  4  1  0  0  0  0 
  2  5  1  0  0  0  0 
  3  6  1  0  0  0  0 
  7  5  2  0  0  0  0 
  5  8  1  0  0  0  0 
  9  7  1  0  0  0  0 
  8 10  2  0  0  0  0 
 11  9  2  0  0  0  0 
 10 11  1  0  0  0  0 
M  END
> <Name>
BENZENE, (2-METHYLBUTYL)-

> <Source>
NIST3DMolFile

> <Tox>
195.4

> <CAS>
3968-85-2

$$$$

  CDK

 11 11  0  0  0  0  0  0  0  0999 V2000
    1.0051    0.0000    0.0000 C   0  0  0  0  0  0  0  0  0  0  0  0
    1.0051    1.0051    0.0000 C   0  0  0  0  0  0  0  0  0  0  0  0
    1.0051    2.0101    0.0000 C   0  0  0  0  0  0  0  0  0  0  0  0
    0.0000    1.0051    0.0000 C   0  0  0  0  0  0  0  0  0  0  0  0
    2.0101    1.0051    0.0000 C   0  0  0  0  0  0  0  0  0  0  0  0
    2.5127    1.8594    0.0000 C   0  0  0  0  0  0  0  0  0  0  0  0
    2.5127    0.1508    0.0000 C   0  0  0  0  0  0  0  0  0  0  0  0
    3.5177    1.8594    0.0000 C   0  0  0  0  0  0  0  0  0  0  0  0
    3.5177    0.1508    0.0000 C   0  0  0  0  0  0  0  0  0  0  0  0
    4.0202    1.0051    0.0000 C   0  0  0  0  0  0  0  0  0  0  0  0
    5.0253    1.0051    0.0000 Br  0  0  0  0  0  0  0  0  0  0  0  0
  1  2  1  0  0  0  0 
  2  3  1  0  0  0  0 
  2  4  1  0  0  0  0 
  2  5  1  0  0  0  0 
  6  5  2  0  0  0  0 
  5  7  1  0  0  0  0 
  8  6  1  0  0  0  0 
  7  9  2  0  0  0  0 
 10  8  2  0  0  0  0 
  9 10  1  0  0  0  0 
 10 11  1  0  0  0  0 
M  END
> <Name>
4-tert-Butyl-1-bromobenzene

> <Source>
NIST2DMolFile

> <Tox>
231.5

> <CAS>
3972-65-4

$$$$

  CDK

 16 17  0  0  0  0  0  0  0  0999 V2000
    5.3463    1.7375   -0.0015 Br  0  0  0  0  0  0  0  0  0  0  0  0
    3.7083    0.7948    0.0001 C   0  0  0  0  0  0  0  0  0  0  0  0
    2.5013    1.4938    0.0009 C   0  0  0  0  0  0  0  0  0  0  0  0
    3.7063   -0.6000   -0.0003 C   0  0  0  0  0  0  0  0  0  0  0  0
    1.2922    0.7981    0.0013 C   0  0  0  0  0  0  0  0  0  0  0  0
    2.4975   -1.2958    0.0001 C   0  0  0  0  0  0  0  0  0  0  0  0
    1.2904   -0.5967    0.0009 C   0  0  0  0  0  0  0  0  0  0  0  0
    0.0300   -1.3225    0.0002 C   0  0  0  0  0  0  0  0  0  0  0  0
    0.0228   -2.5624   -0.0005 O   0  0  0  0  0  0  0  0  0  0  0  0
   -1.2934   -0.6289   -0.0002 C   0  0  0  0  0  0  0  0  0  0  0  0
   -1.8756   -0.3233   -1.2081 C   0  0  0  0  0  0  0  0  0  0  0  0
   -1.8757   -0.3232    1.2079 C   0  0  0  0  0  0  0  0  0  0  0  0
   -3.1106    0.3253   -1.2081 C   0  0  0  0  0  0  0  0  0  0  0  0
   -3.1107    0.3253    1.2078 C   0  0  0  0  0  0  0  0  0  0  0  0
   -3.7282    0.6495   -0.0001 C   0  0  0  0  0  0  0  0  0  0  0  0
   -5.4010    1.5288   -0.0003 Br  0  0  0  0  0  0  0  0  0  0  0  0
  1  2  1  0  0  0  0 
  3  2  2  0  0  0  0 
  4  2  1  0  0  0  0 
  5  3  1  0  0  0  0 
  6  4  2  0  0  0  0 
  7  5  2  0  0  0  0 
  7  6  1  0  0  0  0 
  7  8  1  0  0  0  0 
  9  8  2  0  0  0  0 
 10  8  1  0  0  0  0 
 10 11  2  0  0  0  0 
 10 12  1  0  0  0  0 
 11 13  1  0  0  0  0 
 12 14  2  0  0  0  0 
 13 15  2  0  0  0  0 
 14 15  1  0  0  0  0 
 16 15  1  0  0  0  0 
M  END
> <Name>
Bis-(4-bromo-phenyl)-methanone

> <Source>
Chemidplus3DMolFile

> <Tox>
395

> <CAS>
3988-03-2

$$$$

  CDK

 14 15  0  0  0  0  0  0  0  0999 V2000
    0.0000    0.0000    0.0000 C   0  0  0  0  0  0  0  0  0  0  0  0
    0.6200    1.1600   -0.0800 O   0  0  0  0  0  0  0  0  0  0  0  0
    0.7400   -1.1600    0.3000 C   0  0  0  0  0  0  0  0  0  0  0  0
   -1.3800   -0.0800   -0.2000 C   0  0  0  0  0  0  0  0  0  0  0  0
    1.9400    1.1800   -0.0800 C   0  0  0  0  0  0  0  0  0  0  0  0
    0.0800   -2.4000    0.3800 C   0  0  0  0  0  0  0  0  0  0  0  0
   -2.0400   -1.3200   -0.1200 C   0  0  0  0  0  0  0  0  0  0  0  0
    2.6600    0.7600   -1.2000 C   0  0  0  0  0  0  0  0  0  0  0  0
    2.6200    1.5800    1.0800 C   0  0  0  0  0  0  0  0  0  0  0  0
   -1.3200   -2.4800    0.1800 C   0  0  0  0  0  0  0  0  0  0  0  0
    1.9600    0.3200   -2.4400 C   0  0  0  0  0  0  0  0  0  0  0  0
    4.0800    0.7800   -1.1600 C   0  0  0  0  0  0  0  0  0  0  0  0
    4.0200    1.6000    1.1200 C   0  0  0  0  0  0  0  0  0  0  0  0
    4.7400    1.2000    0.0000 C   0  0  0  0  0  0  0  0  0  0  0  0
  1  2  1  0  0  0  0 
  1  3  2  0  0  0  0 
  1  4  1  0  0  0  0 
  2  5  1  0  0  0  0 
  3  6  1  0  0  0  0 
  7  4  2  0  0  0  0 
  5  8  2  0  0  0  0 
  5  9  1  0  0  0  0 
  6 10  2  0  0  0  0 
 10  7  1  0  0  0  0 
  8 11  1  0  0  0  0 
  8 12  1  0  0  0  0 
  9 13  2  0  0  0  0 
 14 12  2  0  0  0  0 
 13 14  1  0  0  0  0 
M  END
> <Name>
BENZENE, 1-METHYL-2-PHENOXY-

> <Source>
NIH3DMolFile

> <Tox>
263.5

> <CAS>
3991-61-5

$$$$

  CDK

  9  8  0  0  0  0  0  0  0  0999 V2000
    3.2162    1.7767    3.8747 C   0  0  0  0  0  0  0  0  0  0  0  0
    4.7145    1.9327    4.2050 C   0  0  0  0  0  0  0  0  0  0  0  0
    2.8750    2.2324    2.4640 C   0  0  0  0  0  0  0  0  0  0  0  0
    5.5322    1.0615    3.2331 C   0  0  0  0  0  0  0  0  0  0  0  0
    4.9428    1.4659    5.6422 C   0  0  0  0  0  0  0  0  0  0  0  0
    5.1127    3.4029    4.0816 C   0  0  0  0  0  0  0  0  0  0  0  0
    1.3990    2.0566    2.1570 C   0  0  0  0  0  0  0  0  0  0  0  0
    7.0302    1.2026    3.3829 C   0  0  0  0  0  0  0  0  0  0  0  0
    1.0673    2.5177    0.7558 C   0  0  0  0  0  0  0  0  0  0  0  0
  1  2  1  0  0  0  0 
  1  3  1  0  0  0  0 
  2  4  1  0  0  0  0 
  2  5  1  0  0  0  0 
  2  6  1  0  0  0  0 
  3  7  1  0  0  0  0 
  4  8  1  0  0  0  0 
  7  9  1  0  0  0  0 
M  END
> <Name>
HEPTANE, 3,3-DIMETHYL-

> <Source>
NIST3DMolFile

> <Tox>
137.3

> <CAS>
4032-86-4

$$$$

  CDK

 10  9  0  0  0  0  0  0  0  0999 V2000
    0.0000    1.8412    0.0000 C   0  0  0  0  0  0  0  0  0  0  0  0
    1.0229    1.8412    0.0000 C   0  0  0  0  0  0  0  0  0  0  0  0
    1.5343    1.0229    0.0000 C   0  0  0  0  0  0  0  0  0  0  0  0
    2.5572    1.0229    0.0000 C   0  0  0  0  0  0  0  0  0  0  0  0
    2.5572    1.9946    0.0000 C   0  0  0  0  0  0  0  0  0  0  0  0
    2.5572    0.0000    0.0000 C   0  0  0  0  0  0  0  0  0  0  0  0
    3.5290    1.0229    0.0000 C   0  0  0  0  0  0  0  0  0  0  0  0
    4.0404    1.8412    0.0000 C   0  0  0  0  0  0  0  0  0  0  0  0
    5.1145    1.8412    0.0000 C   0  0  0  0  0  0  0  0  0  0  0  0
    3.5801    2.7107    0.0000 C   0  0  0  0  0  0  0  0  0  0  0  0
  1  2  1  0  0  0  0 
  2  3  1  0  0  0  0 
  3  4  1  0  0  0  0 
  4  5  1  0  0  0  0 
  4  6  1  0  0  0  0 
  4  7  1  0  0  0  0 
  7  8  1  0  0  0  0 
  8  9  1  0  0  0  0 
  8 10  1  0  0  0  0 
M  END
> <Name>
2,4,4-TRIMETHYLHEPTANE

> <Source>
NIST2DMolFile

> <Tox>
151

> <CAS>
4032-92-2

$$$$

  CDK

 12 11  0  0  0  0  0  0  0  0999 V2000
    1.8187   -3.1500    0.0000 C   0  0  0  0  0  0  0  0  0  0  0  0
    0.6062   -2.4500    0.0000 C   0  0  0  0  0  0  0  0  0  0  0  0
    3.0311   -2.4500    0.0000 N   0  0  0  0  0  0  0  0  0  0  0  0
   -0.6062   -3.1500    0.0000 N   0  0  0  0  0  0  0  0  0  0  0  0
    4.2435   -3.1500    0.0000 C   0  0  0  0  0  0  0  0  0  0  0  0
   -1.8187   -2.4500    0.0000 C   0  0  0  0  0  0  0  0  0  0  0  0
    4.9435   -1.9376    0.0000 C   0  0  0  0  0  0  0  0  0  0  0  0
    3.5435   -4.3624    0.0000 C   0  0  0  0  0  0  0  0  0  0  0  0
    5.4560   -3.8500    0.0000 C   0  0  0  0  0  0  0  0  0  0  0  0
   -1.1187   -1.2376    0.0000 C   0  0  0  0  0  0  0  0  0  0  0  0
   -3.0311   -1.7500    0.0000 C   0  0  0  0  0  0  0  0  0  0  0  0
   -2.5187   -3.6624    0.0000 C   0  0  0  0  0  0  0  0  0  0  0  0
  2  1  1  0  0  0  0 
  1  3  1  0  0  0  0 
  2  4  1  0  0  0  0 
  3  5  1  0  0  0  0 
  4  6  1  0  0  0  0 
  7  5  1  0  0  0  0 
  5  8  1  0  0  0  0 
  5  9  1  0  0  0  0 
 10  6  1  0  0  0  0 
  6 11  1  0  0  0  0 
  6 12  1  0  0  0  0 
M  END
> <Name>
1,2-Ethanediamine, N,N'-bis(1,1-dimethylethyl)-

> <Source>
IndexNet2DMolFile

> <Tox>
197

> <CAS>
4062-60-6

$$$$

  CDK

  5  4  0  0  0  0  0  0  0  0999 V2000
    2.5823    0.5462    0.0000 C   0  0  0  0  0  0  0  0  0  0  0  0
    1.7381    0.0497    0.0000 C   0  0  0  0  0  0  0  0  0  0  0  0
    2.5823    1.5891    0.0000 C   0  0  0  0  0  0  0  0  0  0  0  0
    0.8939    0.4966    0.0000 C   0  0  0  0  0  0  0  0  0  0  0  0
    0.0000    0.0000    0.0000 O   0  0  0  0  0  0  0  0  0  0  0  0
  1  2  2  0  0  0  0 
  1  3  1  0  0  0  0 
  2  4  1  0  0  0  0 
  4  5  1  0  0  0  0 
M  END
> <Name>
2-BUTEN-1-OL (CIS)

> <Source>
NIST2DMolFile

> <Tox>
123

> <CAS>
4088-60-2

$$$$

  CDK

  7  7  0  0  0  0  0  0  0  0999 V2000
    1.2133    2.1000    0.0000 C   0  0  0  0  0  0  0  0  0  0  0  0
    1.2133    0.7000    0.0000 C   0  0  0  0  0  0  0  0  0  0  0  0
    2.4267    2.8000    0.0000 C   0  0  0  0  0  0  0  0  0  0  0  0
    0.0000    2.8000    0.0000 O   0  0  0  0  0  0  0  0  0  0  0  0
    2.4267    0.0000    0.0000 C   0  0  0  0  0  0  0  0  0  0  0  0
    3.5933    2.1000    0.0000 C   0  0  0  0  0  0  0  0  0  0  0  0
    3.5933    0.7000    0.0000 C   0  0  0  0  0  0  0  0  0  0  0  0
  1  2  1  0  0  0  0 
  1  3  1  0  0  0  0 
  1  4  2  0  0  0  0 
  2  5  1  0  0  0  0 
  6  3  1  0  0  0  0 
  5  7  1  0  0  0  0 
  7  6  2  0  0  0  0 
M  END
> <Name>
Cyclohex-3-enone

> <Source>
IndexNet2DMolFile

> <Tox>
170

> <CAS>
4096-34-8

$$$$

  CDK

  6  6  0  0  0  0  0  0  0  0999 V2000
    2.1482    2.9093    2.5034 C   0  0  0  0  0  0  0  0  0  0  0  0
    3.4118    3.0322    3.3070 C   0  0  0  0  0  0  0  0  0  0  0  0
    0.9117    3.1698    3.3168 C   0  0  0  0  0  0  0  0  0  0  0  0
    2.0616    1.8889    1.3835 C   0  0  0  0  0  0  0  0  0  0  0  0
    2.1690    3.3525    1.0637 C   0  0  0  0  0  0  0  0  0  0  0  0
    3.2102    0.9790    1.0809 C   0  0  0  0  0  0  0  0  0  0  0  0
  1  2  1  0  0  0  0 
  1  3  1  0  0  0  0 
  1  4  1  0  0  0  0 
  5  1  1  0  0  0  0 
  4  5  1  0  0  0  0 
  4  6  1  0  0  0  0 
M  END
> <Name>
CYCLOPROPANE, 1,1,2-TRIMETHYL-

> <Source>
NIST3DMolFile

> <Tox>
54

> <CAS>
4127-45-1

$$$$

  CDK

 17 17  0  0  0  0  0  0  0  0999 V2000
    3.4507   -1.3182    0.0000 C   0  0  0  0  0  0  0  0  0  0  0  0
    3.4507   -0.0000    0.0000 O   0  0  0  0  0  0  0  0  0  0  0  0
    4.5963   -2.0221    0.0000 C   0  0  0  0  0  0  0  0  0  0  0  0
    2.3051   -2.0221    0.0000 C   0  0  0  0  0  0  0  0  0  0  0  0
    4.5963   -3.3403    0.0000 C   0  0  0  0  0  0  0  0  0  0  0  0
    5.7695   -1.3527    0.0000 C   0  0  0  0  0  0  0  0  0  0  0  0
    2.3051   -3.3403    0.0000 C   0  0  0  0  0  0  0  0  0  0  0  0
    1.1318   -1.3527    0.0000 C   0  0  0  0  0  0  0  0  0  0  0  0
    3.4507   -3.9890    0.0000 C   0  0  0  0  0  0  0  0  0  0  0  0
    5.7695   -0.0000    0.0000 C   0  0  0  0  0  0  0  0  0  0  0  0
    6.9014   -2.0221    0.0000 C   0  0  0  0  0  0  0  0  0  0  0  0
    6.9014   -0.6694    0.0000 C   0  0  0  0  0  0  0  0  0  0  0  0
    0.0000   -2.0497    0.0000 C   0  0  0  0  0  0  0  0  0  0  0  0
    1.1318   -0.0345    0.0000 C   0  0  0  0  0  0  0  0  0  0  0  0
    0.0000   -0.6832    0.0000 C   0  0  0  0  0  0  0  0  0  0  0  0
    3.4507   -5.3417    0.0000 C   0  0  0  0  0  0  0  0  0  0  0  0
    4.5963   -6.0111    0.0000 C   0  0  0  0  0  0  0  0  0  0  0  0
  1  2  1  0  0  0  0 
  1  3  2  0  0  0  0 
  1  4  1  0  0  0  0 
  3  5  1  0  0  0  0 
  3  6  1  0  0  0  0 
  4  7  2  0  0  0  0 
  4  8  1  0  0  0  0 
  5  9  2  0  0  0  0 
  6 10  1  0  0  0  0 
  6 11  1  0  0  0  0 
  6 12  1  0  0  0  0 
  7  9  1  0  0  0  0 
  8 13  1  0  0  0  0 
  8 14  1  0  0  0  0 
  8 15  1  0  0  0  0 
  9 16  1  0  0  0  0 
 16 17  1  0  0  0  0 
M  END
> <Name>
Phenol, 2,6-bis(1,1-dimethylethyl)-4-ethyl-

> <Source>
DSSTox2DMolFile

> <Tox>
272

> <CAS>
4130-42-1

$$$$

  CDK

 31 30  0  0  0  0  0  0  0  0999 V2000
    4.5963   -1.3388    0.0000 C   0  0  0  0  0  0  0  0  0  0  0  0
    5.7419   -1.9738    0.0000 C   0  0  0  0  0  0  0  0  0  0  0  0
    3.3954   -1.9738    0.0000 S   0  0  0  0  0  0  0  0  0  0  0  0
    4.5963   -0.0000    0.0000 F   0  0  0  0  0  0  0  0  0  0  0  0
    4.5963   -2.6639    0.0000 F   0  0  0  0  0  0  0  0  0  0  0  0
    6.8599   -1.3388    0.0000 C   0  0  0  0  0  0  0  0  0  0  0  0
    5.7419   -3.3126    0.0000 F   0  0  0  0  0  0  0  0  0  0  0  0
    5.7419   -0.6487    0.0000 F   0  0  0  0  0  0  0  0  0  0  0  0
    2.6639   -0.7453    0.0000 O   0  0  0  0  0  0  0  0  0  0  0  0
    2.3050   -2.6225    0.0000 N   0  0  0  0  0  0  0  0  0  0  0  0
    4.0580   -3.1332    0.0000 O   0  0  0  0  0  0  0  0  0  0  0  0
    8.0607   -1.9738    0.0000 C   0  0  0  0  0  0  0  0  0  0  0  0
    6.8599   -0.0000    0.0000 F   0  0  0  0  0  0  0  0  0  0  0  0
    6.8599   -2.6639    0.0000 F   0  0  0  0  0  0  0  0  0  0  0  0
    1.1456   -1.9738    0.0000 C   0  0  0  0  0  0  0  0  0  0  0  0
    9.2063   -1.3388    0.0000 C   0  0  0  0  0  0  0  0  0  0  0  0
    8.0607   -3.3126    0.0000 F   0  0  0  0  0  0  0  0  0  0  0  0
    8.0607   -0.6487    0.0000 F   0  0  0  0  0  0  0  0  0  0  0  0
    0.0000   -2.6225    0.0000 C   0  0  0  0  0  0  0  0  0  0  0  0
   10.3657   -1.9738    0.0000 C   0  0  0  0  0  0  0  0  0  0  0  0
    9.2063   -0.0000    0.0000 F   0  0  0  0  0  0  0  0  0  0  0  0
    9.2063   -2.6639    0.0000 F   0  0  0  0  0  0  0  0  0  0  0  0
   11.4975   -1.3388    0.0000 C   0  0  0  0  0  0  0  0  0  0  0  0
   10.3657   -3.3126    0.0000 F   0  0  0  0  0  0  0  0  0  0  0  0
   10.3657   -0.6487    0.0000 F   0  0  0  0  0  0  0  0  0  0  0  0
   12.6569   -1.9738    0.0000 C   0  0  0  0  0  0  0  0  0  0  0  0
   11.4975   -0.0000    0.0000 F   0  0  0  0  0  0  0  0  0  0  0  0
   12.6569   -0.6487    0.0000 F   0  0  0  0  0  0  0  0  0  0  0  0
   13.8026   -1.3388    0.0000 F   0  0  0  0  0  0  0  0  0  0  0  0
   12.6569   -3.3126    0.0000 F   0  0  0  0  0  0  0  0  0  0  0  0
   13.8026   -2.6639    0.0000 F   0  0  0  0  0  0  0  0  0  0  0  0
  1  2  1  0  0  0  0 
  1  3  1  0  0  0  0 
  1  4  1  0  0  0  0 
  1  5  1  0  0  0  0 
  2  6  1  0  0  0  0 
  2  7  1  0  0  0  0 
  2  8  1  0  0  0  0 
  3  9  2  0  0  0  0 
  3 10  1  0  0  0  0 
  3 11  2  0  0  0  0 
  6 12  1  0  0  0  0 
  6 13  1  0  0  0  0 
  6 14  1  0  0  0  0 
 10 15  1  0  0  0  0 
 12 16  1  0  0  0  0 
 12 17  1  0  0  0  0 
 12 18  1  0  0  0  0 
 15 19  1  0  0  0  0 
 16 20  1  0  0  0  0 
 16 21  1  0  0  0  0 
 16 22  1  0  0  0  0 
 20 23  1  0  0  0  0 
 20 24  1  0  0  0  0 
 20 25  1  0  0  0  0 
 23 26  1  0  0  0  0 
 23 27  1  0  0  0  0 
 23 28  1  0  0  0  0 
 26 29  1  0  0  0  0 
 26 30  1  0  0  0  0 
 26 31  1  0  0  0  0 
M  END
> <Name>
SULFLURAMID

> <Source>
DSSTox2DMolFile

> <Tox>
196

> <CAS>
4151-50-2

$$$$

  CDK

  8  8  0  0  0  0  0  0  0  0999 V2000
    0.6595   -1.9038    0.0000 Cl  0  0  0  0  0  0  0  0  0  0  0  0
   -0.0550   -1.4913    0.0000 Si  0  0  0  0  0  0  0  0  0  0  0  0
   -0.0550   -0.6663    0.0000 C   0  0  0  0  0  0  0  0  0  0  0  0
    0.6595   -0.2538    0.0000 C   0  0  0  0  0  0  0  0  0  0  0  0
   -0.7694   -0.2538    0.0000 C   0  0  0  0  0  0  0  0  0  0  0  0
    0.6595    0.5712    0.0000 C   0  0  0  0  0  0  0  0  0  0  0  0
   -0.7694    0.5712    0.0000 C   0  0  0  0  0  0  0  0  0  0  0  0
   -0.0550    0.9837    0.0000 C   0  0  0  0  0  0  0  0  0  0  0  0
  1  2  1  0  0  0  0 
  2  3  1  0  0  0  0 
  3  4  1  0  0  0  0 
  3  5  2  0  0  0  0 
  4  6  2  0  0  0  0 
  5  7  1  0  0  0  0 
  6  8  1  0  0  0  0 
  8  7  2  0  0  0  0 
M  END
> <Name>
SILANE, CHLOROPHENYL-

> <Source>
Smiles

> <Tox>
162.5

> <CAS>
4206-75-1

$$$$

  CDK

 12 13  0  0  0  0  0  0  0  0999 V2000
   -0.1429    0.2062    0.0000 C   0  0  0  0  0  0  0  0  0  0  0  0
   -0.8574    0.6188    0.0000 N   0  0  0  0  0  0  0  0  0  0  0  0
   -0.1429   -0.6188    0.0000 C   0  0  0  0  0  0  0  0  0  0  0  0
    0.5716    0.6188    0.0000 C   0  0  0  0  0  0  0  0  0  0  0  0
   -1.5718    0.2063    0.0000 C   0  0  0  0  0  0  0  0  0  0  0  0
   -0.8574   -1.0313    0.0000 C   0  0  0  0  0  0  0  0  0  0  0  0
    0.5716   -1.0313    0.0000 C   0  0  0  0  0  0  0  0  0  0  0  0
    1.2860    0.2062    0.0000 C   0  0  0  0  0  0  0  0  0  0  0  0
    0.5716    1.4438    0.0000 C   0  0  0  0  0  0  0  0  0  0  0  0
   -2.2863    0.6188    0.0000 Cl  0  0  0  0  0  0  0  0  0  0  0  0
   -1.5718   -0.6187    0.0000 C   0  0  0  0  0  0  0  0  0  0  0  0
    1.2860   -0.6188    0.0000 C   0  0  0  0  0  0  0  0  0  0  0  0
  1  2  2  0  0  0  0 
  1  3  1  0  0  0  0 
  1  4  1  0  0  0  0 
  2  5  1  0  0  0  0 
  6  3  2  0  0  0  0 
  3  7  1  0  0  0  0 
  8  4  2  0  0  0  0 
  4  9  1  0  0  0  0 
  5 10  1  0  0  0  0 
  5 11  2  0  0  0  0 
 11  6  1  0  0  0  0 
  7 12  2  0  0  0  0 
 12  8  1  0  0  0  0 
M  END
> <Name>
2-Chloro-8-methyl-quinoline

> <Source>
Smiles

> <Tox>
287

> <CAS>
4225-85-8

$$$$

  CDK

 11 10  0  0  0  0  0  0  0  0999 V2000
    1.7257    3.3115    0.0000 F   0  0  0  0  0  0  0  0  0  0  0  0
    2.4253    2.0988    0.0000 C   0  0  0  0  0  0  0  0  0  0  0  0
    3.1249    3.3115    0.0000 F   0  0  0  0  0  0  0  0  0  0  0  0
    1.2127    1.3992    0.0000 C   0  0  0  0  0  0  0  0  0  0  0  0
    3.6380    1.3992    0.0000 C   0  0  0  0  0  0  0  0  0  0  0  0
    0.0000    2.0988    0.0000 Cl  0  0  0  0  0  0  0  0  0  0  0  0
    1.2127    0.0000    0.0000 Cl  0  0  0  0  0  0  0  0  0  0  0  0
    0.0000    0.6996    0.0000 Cl  0  0  0  0  0  0  0  0  0  0  0  0
    4.8506    2.0988    0.0000 F   0  0  0  0  0  0  0  0  0  0  0  0
    3.6380    0.0000    0.0000 F   0  0  0  0  0  0  0  0  0  0  0  0
    4.8506    0.6996    0.0000 F   0  0  0  0  0  0  0  0  0  0  0  0
  1  2  1  0  0  0  0 
  2  3  1  0  0  0  0 
  2  4  1  0  0  0  0 
  2  5  1  0  0  0  0 
  4  6  1  0  0  0  0 
  4  7  1  0  0  0  0 
  4  8  1  0  0  0  0 
  5  9  1  0  0  0  0 
  5 10  1  0  0  0  0 
  5 11  1  0  0  0  0 
M  END
> <Name>
1,1,1-trichloro-2,2,3,3,3-pentafluoropropane

> <Source>
IndexNet2DMolFile

> <Tox>
74

> <CAS>
4259-43-2

$$$$

  CDK

 10 11  0  0  0  0  0  0  0  0999 V2000
    4.3011    1.0003    0.0000 C   0  0  0  0  0  0  0  0  0  0  0  0
    3.2508    1.0003    0.0000 C   0  0  0  0  0  0  0  0  0  0  0  0
    2.6507    1.8005    0.0000 C   0  0  0  0  0  0  0  0  0  0  0  0
    2.7007    0.2001    0.0000 O   0  0  0  0  0  0  0  0  0  0  0  0
    1.7504    1.5004    0.0000 C   0  0  0  0  0  0  0  0  0  0  0  0
    1.7504    0.5001    0.0000 C   0  0  0  0  0  0  0  0  0  0  0  0
    0.9002    2.0005    0.0000 C   0  0  0  0  0  0  0  0  0  0  0  0
    0.9002    0.0000    0.0000 C   0  0  0  0  0  0  0  0  0  0  0  0
    0.0000    1.5004    0.0000 C   0  0  0  0  0  0  0  0  0  0  0  0
    0.0000    0.5001    0.0000 C   0  0  0  0  0  0  0  0  0  0  0  0
  1  2  1  0  0  0  0 
  3  2  2  0  0  0  0 
  2  4  1  0  0  0  0 
  5  3  1  0  0  0  0 
  4  6  1  0  0  0  0 
  6  5  2  0  0  0  0 
  7  5  1  0  0  0  0 
  6  8  1  0  0  0  0 
  9  7  2  0  0  0  0 
  8 10  2  0  0  0  0 
 10  9  1  0  0  0  0 
M  END
> <Name>
2-METHYLBENZOFURAN

> <Source>
NIST2DMolFile

> <Tox>
197.5

> <CAS>
4265-25-2

$$$$

  CDK

  6  5  0  0  0  0  0  0  0  0999 V2000
    0.0000    1.0233    0.0000 C   0  0  0  0  0  0  0  0  0  0  0  0
    1.0233    1.0233    0.0000 C   0  0  0  0  0  0  0  0  0  0  0  0
    1.9954    1.0233    0.0000 C   0  0  0  0  0  0  0  0  0  0  0  0
    1.0233    1.9954    0.0000 Cl  0  0  0  0  0  0  0  0  0  0  0  0
    1.0233    0.0000    0.0000 Cl  0  0  0  0  0  0  0  0  0  0  0  0
    2.5071    0.1535    0.0000 C   0  0  0  0  0  0  0  0  0  0  0  0
  1  2  1  0  0  0  0 
  2  3  1  0  0  0  0 
  2  4  1  0  0  0  0 
  2  5  1  0  0  0  0 
  3  6  1  0  0  0  0 
M  END
> <Name>
Butane, 2,2-dichloro-

> <Source>
NIST2DMolFile

> <Tox>
104

> <CAS>
4279-22-5

$$$$

  CDK

 10 10  0  0  0  0  0  0  0  0999 V2000
    1.9285    1.0538    2.7198 C   0  0  0  0  0  0  0  0  0  0  0  0
    2.7117    2.2867    2.2939 C   0  0  0  0  0  0  0  0  0  0  0  0
    0.6648    0.8862    1.9089 C   0  0  0  0  0  0  0  0  0  0  0  0
    4.0717    2.3524    2.9920 C   0  0  0  0  0  0  0  0  0  0  0  0
    4.7640    3.6955    2.7636 C   0  0  0  0  0  0  0  0  0  0  0  0
    4.9784    1.1933    2.5746 C   0  0  0  0  0  0  0  0  0  0  0  0
    5.3185    3.8484    1.3484 C   0  0  0  0  0  0  0  0  0  0  0  0
    5.5533    1.3598    1.1780 C   0  0  0  0  0  0  0  0  0  0  0  0
    6.0316    5.1814    1.1989 C   0  0  0  0  0  0  0  0  0  0  0  0
    6.2652    2.6934    1.0287 C   0  0  0  0  0  0  0  0  0  0  0  0
  1  2  1  0  0  0  0 
  1  3  1  0  0  0  0 
  2  4  1  0  0  0  0 
  4  5  1  0  0  0  0 
  6  4  1  0  0  0  0 
  5  7  1  0  0  0  0 
  8  6  1  0  0  0  0 
  7  9  1  0  0  0  0 
  7 10  1  0  0  0  0 
 10  8  1  0  0  0  0 
M  END
> <Name>
CYCLOHEXANE, 1-METHYL-3-PROPYL-

> <Source>
NIST3DMolFile

> <Tox>
164.5

> <CAS>
4291-80-9

$$$$

  CDK

 14 15  0  0  0  0  0  0  0  0999 V2000
    2.5847    2.9824    0.0000 C   0  0  0  0  0  0  0  0  0  0  0  0
    2.5847    1.9883    0.0000 C   0  0  0  0  0  0  0  0  0  0  0  0
    1.7397    1.4912    0.0000 C   0  0  0  0  0  0  0  0  0  0  0  0
    3.4298    1.4912    0.0000 C   0  0  0  0  0  0  0  0  0  0  0  0
    0.8450    1.9883    0.0000 C   0  0  0  0  0  0  0  0  0  0  0  0
    1.7397    0.4971    0.0000 C   0  0  0  0  0  0  0  0  0  0  0  0
    3.4298    0.4971    0.0000 C   0  0  0  0  0  0  0  0  0  0  0  0
    4.2748    1.9883    0.0000 C   0  0  0  0  0  0  0  0  0  0  0  0
    0.0000    1.4912    0.0000 C   0  0  0  0  0  0  0  0  0  0  0  0
    0.8947    0.0000    0.0000 C   0  0  0  0  0  0  0  0  0  0  0  0
    4.3245    0.0000    0.0000 C   0  0  0  0  0  0  0  0  0  0  0  0
    5.1695    1.5409    0.0000 C   0  0  0  0  0  0  0  0  0  0  0  0
    0.0000    0.4474    0.0000 C   0  0  0  0  0  0  0  0  0  0  0  0
    5.1695    0.4971    0.0000 C   0  0  0  0  0  0  0  0  0  0  0  0
  1  2  1  0  0  0  0 
  2  3  1  0  0  0  0 
  2  4  1  0  0  0  0 
  5  3  1  0  0  0  0 
  3  6  1  0  0  0  0 
  7  4  2  0  0  0  0 
  4  8  1  0  0  0  0 
  9  5  1  0  0  0  0 
  6 10  1  0  0  0  0 
 11  7  1  0  0  0  0 
  8 12  2  0  0  0  0 
 13  9  1  0  0  0  0 
 10 13  1  0  0  0  0 
 14 11  2  0  0  0  0 
 12 14  1  0  0  0  0 
M  END
> <Name>
BENZENE, (1-CYCLOHEXYLETHYL)-

> <Source>
NIST2DMolFile

> <Tox>
265

> <CAS>
4413-16-5

$$$$

  CDK

 11 11  0  0  0  0  0  0  0  0999 V2000
    2.5252    1.6666    0.0000 C   0  0  0  0  0  0  0  0  0  0  0  0
    1.5656    1.6666    0.0000 C   0  0  0  0  0  0  0  0  0  0  0  0
    3.0302    2.5757    0.0000 C   0  0  0  0  0  0  0  0  0  0  0  0
    1.0606    2.5757    0.0000 C   0  0  0  0  0  0  0  0  0  0  0  0
    1.0101    0.8586    0.0000 C   0  0  0  0  0  0  0  0  0  0  0  0
    2.4747    3.4342    0.0000 C   0  0  0  0  0  0  0  0  0  0  0  0
    4.0403    2.5757    0.0000 C   0  0  0  0  0  0  0  0  0  0  0  0
    1.5151    3.4342    0.0000 C   0  0  0  0  0  0  0  0  0  0  0  0
    0.0505    2.5757    0.0000 O   0  0  0  0  0  0  0  0  0  0  0  0
    0.0000    0.8586    0.0000 C   0  0  0  0  0  0  0  0  0  0  0  0
    1.5151    0.0000    0.0000 C   0  0  0  0  0  0  0  0  0  0  0  0
  2  1  2  0  0  0  0 
  1  3  1  0  0  0  0 
  4  2  1  0  0  0  0 
  2  5  1  0  0  0  0 
  3  6  2  0  0  0  0 
  3  7  1  0  0  0  0 
  8  4  2  0  0  0  0 
  4  9  1  0  0  0  0 
  5 10  1  0  0  0  0 
  5 11  1  0  0  0  0 
  6  8  1  0  0  0  0 
M  END
> <Name>
Phenol, 4-methyl-2-(1-methylethyl)-

> <Source>
NIST2DMolFile

> <Tox>
228.5

> <CAS>
4427-56-9

$$$$

  CDK

 14 15  0  0  0  0  0  0  0  0999 V2000
    5.5298    0.0000    0.0000 C   0  0  0  0  0  0  0  0  0  0  0  0
    4.5058    0.0000    0.0000 C   0  0  0  0  0  0  0  0  0  0  0  0
    6.0418    0.8704    0.0000 C   0  0  0  0  0  0  0  0  0  0  0  0
    3.9938    0.8704    0.0000 C   0  0  0  0  0  0  0  0  0  0  0  0
    5.5298    1.6897    0.0000 C   0  0  0  0  0  0  0  0  0  0  0  0
    4.5058    1.6897    0.0000 C   0  0  0  0  0  0  0  0  0  0  0  0
    3.0209    0.8704    0.0000 C   0  0  0  0  0  0  0  0  0  0  0  0
    2.5601    0.0000    0.0000 C   0  0  0  0  0  0  0  0  0  0  0  0
    2.5601    1.6897    0.0000 C   0  0  0  0  0  0  0  0  0  0  0  0
    1.5361    0.0000    0.0000 C   0  0  0  0  0  0  0  0  0  0  0  0
    1.5361    1.6897    0.0000 C   0  0  0  0  0  0  0  0  0  0  0  0
    1.0240    0.8704    0.0000 C   0  0  0  0  0  0  0  0  0  0  0  0
    1.0240    2.6113    0.0000 C   0  0  0  0  0  0  0  0  0  0  0  0
    0.0000    0.8704    0.0000 C   0  0  0  0  0  0  0  0  0  0  0  0
  2  1  2  0  0  0  0 
  1  3  1  0  0  0  0 
  4  2  1  0  0  0  0 
  3  5  2  0  0  0  0 
  6  4  2  0  0  0  0 
  4  7  1  0  0  0  0 
  5  6  1  0  0  0  0 
  8  7  2  0  0  0  0 
  7  9  1  0  0  0  0 
 10  8  1  0  0  0  0 
  9 11  2  0  0  0  0 
 12 10  2  0  0  0  0 
 11 12  1  0  0  0  0 
 11 13  1  0  0  0  0 
 12 14  1  0  0  0  0 
M  END
> <Name>
3,4-DIMETHYLBIPHENYL

> <Source>
NIST2DMolFile

> <Tox>
282

> <CAS>
4433-11-8

$$$$

  CDK

  8  7  0  0  0  0  0  0  0  0999 V2000
    2.7545    0.3216    0.3430 C   0  0  0  0  0  0  0  0  0  0  0  0
    1.5104    0.9251   -0.3256 C   0  0  0  0  0  0  0  0  0  0  0  0
    3.0639   -0.9624   -0.1247 O   0  0  0  0  0  0  0  0  0  0  0  0
    0.3812    0.2880    0.2509 O   0  0  0  0  0  0  0  0  0  0  0  0
   -0.8478    0.6872   -0.3379 C   0  0  0  0  0  0  0  0  0  0  0  0
   -1.9675   -0.1182    0.3370 C   0  0  0  0  0  0  0  0  0  0  0  0
   -1.9838   -1.5545   -0.1592 C   0  0  0  0  0  0  0  0  0  0  0  0
   -3.3045    0.5509    0.0614 C   0  0  0  0  0  0  0  0  0  0  0  0
  1  2  1  0  0  0  0 
  1  3  1  0  0  0  0 
  2  4  1  0  0  0  0 
  4  5  1  0  0  0  0 
  5  6  1  0  0  0  0 
  6  7  1  0  0  0  0 
  6  8  1  0  0  0  0 
M  END
> <Name>
ETHANOL, 2-(2-METHYLPROPOXY)-

> <Source>
DougDB3DMolFile

> <Tox>
160

> <CAS>
4439-24-1

$$$$

  CDK

  9  9  0  0  0  0  0  0  0  0999 V2000
   -2.4588   -0.3230   -0.4364 C   0  0  0  0  0  0  0  0  0  0  0  0
   -1.4305    0.5243    0.3104 C   0  0  0  0  0  0  0  0  0  0  0  0
   -3.7344    0.0415    0.0406 O   0  0  0  0  0  0  0  0  0  0  0  0
   -0.0086    0.2338   -0.1696 C   0  0  0  0  0  0  0  0  0  0  0  0
    0.4406   -1.1799    0.2189 C   0  0  0  0  0  0  0  0  0  0  0  0
    0.9586    1.2726    0.3945 C   0  0  0  0  0  0  0  0  0  0  0  0
    1.9497   -1.2904    0.3959 C   0  0  0  0  0  0  0  0  0  0  0  0
    2.3530    1.1172   -0.1989 C   0  0  0  0  0  0  0  0  0  0  0  0
    2.6930   -0.3336   -0.5181 C   0  0  0  0  0  0  0  0  0  0  0  0
  1  2  1  0  0  0  0 
  1  3  1  0  0  0  0 
  2  4  1  0  0  0  0 
  4  5  1  0  0  0  0 
  4  6  1  0  0  0  0 
  5  7  1  0  0  0  0 
  8  6  1  0  0  0  0 
  7  9  1  0  0  0  0 
  9  8  1  0  0  0  0 
M  END
> <Name>
CYCLOHEXANEETHANOL

> <Source>
DougDB3DMolFile

> <Tox>
208

> <CAS>
4442-79-9

$$$$

  CDK

 24 24  0  0  0  0  0  0  0  0999 V2000
    0.0000    0.0000    0.0000 C   0  0  0  0  0  0  0  0  0  0  0  0
   -1.3200    0.7400   -0.2600 C   0  0  0  0  0  0  0  0  0  0  0  0
   -2.3000    0.6000    0.9000 C   0  0  0  0  0  0  0  0  0  0  0  0
   -3.6400    1.3200    0.6200 C   0  0  0  0  0  0  0  0  0  0  0  0
   -4.6400    1.1400    1.7400 C   0  0  0  0  0  0  0  0  0  0  0  0
   -6.0000    1.7800    1.4200 C   0  0  0  0  0  0  0  0  0  0  0  0
   -7.0400    1.5000    2.5000 C   0  0  0  0  0  0  0  0  0  0  0  0
   -8.4400    1.9800    2.1200 C   0  0  0  0  0  0  0  0  0  0  0  0
   -9.5200    1.5400    3.1000 C   0  0  0  0  0  0  0  0  0  0  0  0
  -10.9400    1.7600    2.5800 C   0  0  0  0  0  0  0  0  0  0  0  0
  -12.0000    1.0600    3.4200 C   0  0  0  0  0  0  0  0  0  0  0  0
  -13.3400    0.9400    2.7000 C   0  0  0  0  0  0  0  0  0  0  0  0
  -14.2400   -0.1200    3.3200 C   0  0  0  0  0  0  0  0  0  0  0  0
  -15.3600   -0.6000    2.3600 C   0  0  0  0  0  0  0  0  0  0  0  0
  -15.9200   -1.9600    2.7400 C   0  0  0  0  0  0  0  0  0  0  0  0
  -16.7400   -2.6000    1.6200 C   0  0  0  0  0  0  0  0  0  0  0  0
  -16.9800   -4.1000    1.8400 C   0  0  0  0  0  0  0  0  0  0  0  0
  -17.5600   -4.7800    0.6200 C   0  0  0  0  0  0  0  0  0  0  0  0
  -17.4000   -6.2600    0.6800 C   0  0  0  0  0  0  0  0  0  0  0  0
  -18.5400   -7.0800    0.8000 C   0  0  0  0  0  0  0  0  0  0  0  0
  -16.1200   -6.8400    0.6400 C   0  0  0  0  0  0  0  0  0  0  0  0
  -18.4000   -8.4800    0.8800 C   0  0  0  0  0  0  0  0  0  0  0  0
  -15.9800   -8.2400    0.7200 C   0  0  0  0  0  0  0  0  0  0  0  0
  -17.1200   -9.0600    0.8400 C   0  0  0  0  0  0  0  0  0  0  0  0
  1  2  1  0  0  0  0 
  2  3  1  0  0  0  0 
  3  4  1  0  0  0  0 
  4  5  1  0  0  0  0 
  5  6  1  0  0  0  0 
  6  7  1  0  0  0  0 
  7  8  1  0  0  0  0 
  8  9  1  0  0  0  0 
  9 10  1  0  0  0  0 
 10 11  1  0  0  0  0 
 11 12  1  0  0  0  0 
 12 13  1  0  0  0  0 
 13 14  1  0  0  0  0 
 14 15  1  0  0  0  0 
 15 16  1  0  0  0  0 
 16 17  1  0  0  0  0 
 18 17  1  0  0  0  0 
 18 19  1  0  0  0  0 
 19 20  2  0  0  0  0 
 19 21  1  0  0  0  0 
 20 22  1  0  0  0  0 
 23 21  2  0  0  0  0 
 22 24  2  0  0  0  0 
 24 23  1  0  0  0  0 
M  END
> <Name>
Benzene, octadecyl-

> <Source>
NIH3DMolFile

> <Tox>
408

> <CAS>
4445-07-2

$$$$

  CDK

  8  8  0  0  0  0  0  0  0  0999 V2000
    3.2924   -1.1881    0.0000 O   0  0  0  0  0  0  0  0  0  0  0  0
    4.0005   -2.3283    0.0000 C   0  0  0  0  0  0  0  0  0  0  0  0
    1.9762   -1.1881    0.0000 C   0  0  0  0  0  0  0  0  0  0  0  0
    3.2924   -3.4684    0.0000 C   0  0  0  0  0  0  0  0  0  0  0  0
    1.2841   -2.3283    0.0000 C   0  0  0  0  0  0  0  0  0  0  0  0
    1.3322   -0.0320    0.0000 O   0  0  0  0  0  0  0  0  0  0  0  0
    1.9762   -3.4684    0.0000 C   0  0  0  0  0  0  0  0  0  0  0  0
    0.0000   -0.0000    0.0000 C   0  0  0  0  0  0  0  0  0  0  0  0
  1  2  1  0  0  0  0 
  1  3  1  0  0  0  0 
  2  4  2  0  0  0  0 
  5  3  1  0  0  0  0 
  3  6  1  0  0  0  0 
  4  7  1  0  0  0  0 
  7  5  1  0  0  0  0 
  6  8  1  0  0  0  0 
M  END
> <Name>
2-Methoxy-3,4-dihydro-2H-pyran

> <Source>
DSSTox2DMolFile

> <Tox>
117.6

> <CAS>
4454-05-1

$$$$

  CDK

  8  7  0  0  0  0  0  0  0  0999 V2000
    5.0829    2.5270    1.0616 C   0  0  0  0  0  0  0  0  0  0  0  0
    3.7139    1.9405    1.2486 C   0  0  0  0  0  0  0  0  0  0  0  0
    6.1129    1.8726    1.9715 C   0  0  0  0  0  0  0  0  0  0  0  0
    2.6848    2.7499    1.5330 C   0  0  0  0  0  0  0  0  0  0  0  0
    3.6202    0.4693    1.0644 C   0  0  0  0  0  0  0  0  0  0  0  0
    7.5060    2.3876    1.6942 C   0  0  0  0  0  0  0  0  0  0  0  0
    1.2413    2.4278    1.6825 C   0  0  0  0  0  0  0  0  0  0  0  0
    0.8939    1.0745    2.2661 C   0  0  0  0  0  0  0  0  0  0  0  0
  1  2  1  0  0  0  0 
  1  3  1  0  0  0  0 
  2  4  2  0  0  0  0 
  2  5  1  0  0  0  0 
  3  6  1  0  0  0  0 
  4  7  1  0  0  0  0 
  7  8  1  0  0  0  0 
M  END
> <Name>
3-HEPTENE, 4-METHYL-

> <Source>
NIST3DMolFile

> <Tox>
121

> <CAS>
4485-16-9

$$$$

  CDK

 12 12  0  0  0  0  0  0  0  0999 V2000
    0.0221   -2.3356   -0.2300 O   0  0  0  0  0  0  0  0  0  0  0  0
   -0.5084   -1.0872   -0.0971 C   0  0  0  0  0  0  0  0  0  0  0  0
    0.3144    0.0235    0.0899 C   0  0  0  0  0  0  0  0  0  0  0  0
   -1.8930   -0.9282   -0.1507 C   0  0  0  0  0  0  0  0  0  0  0  0
   -0.2474    1.2932    0.2234 C   0  0  0  0  0  0  0  0  0  0  0  0
    1.7623   -0.1204    0.1487 C   0  0  0  0  0  0  0  0  0  0  0  0
   -2.4550    0.3416   -0.0173 C   0  0  0  0  0  0  0  0  0  0  0  0
   -1.6321    1.4522    0.1697 C   0  0  0  0  0  0  0  0  0  0  0  0
    2.3965    0.9982   -0.3170 O   0  0  0  0  0  0  0  0  0  0  0  0
    2.3477   -1.1272    0.5657 O   0  0  0  0  0  0  0  0  0  0  0  0
   -3.9353    0.5119   -0.0743 C   0  0  0  0  0  0  0  0  0  0  0  0
    3.8281    0.9780   -0.3111 C   0  0  0  0  0  0  0  0  0  0  0  0
  1  2  1  0  0  0  0 
  3  2  2  0  0  0  0 
  2  4  1  0  0  0  0 
  3  5  1  0  0  0  0 
  3  6  1  0  0  0  0 
  7  4  2  0  0  0  0 
  8  5  2  0  0  0  0 
  9  6  1  0  0  0  0 
 10  6  2  0  0  0  0 
  7  8  1  0  0  0  0 
  7 11  1  0  0  0  0 
  9 12  1  0  0  0  0 
M  END
> <Name>
2-Hydroxy-4-methyl-benzoic acid methyl ester

> <Source>
Chemidplus3DMolFile

> <Tox>
243

> <CAS>
4670-56-8

$$$$

  CDK

 11 11  0  0  0  0  0  0  0  0999 V2000
    1.1576    2.8758    3.0660 C   0  0  0  0  0  0  0  0  0  0  0  0
    1.7557    2.1056    1.8966 C   0  0  0  0  0  0  0  0  0  0  0  0
    1.0935    0.7445    1.7538 C   0  0  0  0  0  0  0  0  0  0  0  0
    3.2448    1.9869    2.0854 C   0  0  0  0  0  0  0  0  0  0  0  0
    4.1159    2.9310    1.5243 C   0  0  0  0  0  0  0  0  0  0  0  0
    3.7728    0.9407    2.8457 C   0  0  0  0  0  0  0  0  0  0  0  0
    3.6110    4.0827    0.7300 C   0  0  0  0  0  0  0  0  0  0  0  0
    5.4922    2.8049    1.7248 C   0  0  0  0  0  0  0  0  0  0  0  0
    5.1394    0.8237    3.0483 C   0  0  0  0  0  0  0  0  0  0  0  0
    6.0104    1.7586    2.4848 C   0  0  0  0  0  0  0  0  0  0  0  0
    7.4755    1.6293    2.6926 C   0  0  0  0  0  0  0  0  0  0  0  0
  1  2  1  0  0  0  0 
  2  3  1  0  0  0  0 
  2  4  1  0  0  0  0 
  4  5  2  0  0  0  0 
  6  4  1  0  0  0  0 
  5  7  1  0  0  0  0 
  5  8  1  0  0  0  0 
  9  6  2  0  0  0  0 
  8 10  2  0  0  0  0 
 10  9  1  0  0  0  0 
 10 11  1  0  0  0  0 
M  END
> <Name>
BENZENE, 2,4-DIMETHYL-1-(1-METHYLETHYL)-

> <Source>
NIST3DMolFile

> <Tox>
197

> <CAS>
4706-89-2

$$$$

  CDK

  9  8  0  0  0  0  0  0  0  0999 V2000
    1.7492    1.4993    0.0000 C   0  0  0  0  0  0  0  0  0  0  0  0
    2.5988    0.9995    0.0000 C   0  0  0  0  0  0  0  0  0  0  0  0
    0.8496    0.9995    0.0000 C   0  0  0  0  0  0  0  0  0  0  0  0
    3.4484    1.4993    0.0000 C   0  0  0  0  0  0  0  0  0  0  0  0
    0.8496    0.0000    0.0000 C   0  0  0  0  0  0  0  0  0  0  0  0
    0.0000    1.4993    0.0000 C   0  0  0  0  0  0  0  0  0  0  0  0
    4.3480    0.9995    0.0000 C   0  0  0  0  0  0  0  0  0  0  0  0
    4.3480    0.0000    0.0000 C   0  0  0  0  0  0  0  0  0  0  0  0
    5.1976    1.4993    0.0000 O   0  0  0  0  0  0  0  0  0  0  0  0
  1  2  1  0  0  0  0 
  1  3  1  0  0  0  0 
  2  4  1  0  0  0  0 
  3  5  1  0  0  0  0 
  3  6  1  0  0  0  0 
  4  7  1  0  0  0  0 
  7  8  1  0  0  0  0 
  7  9  1  0  0  0  0 
M  END
> <Name>
6-Methyl-2-heptanol

> <Source>
NIST2DMolFile

> <Tox>
174

> <CAS>
4730-22-7

$$$$

  CDK

  5  4  0  0  0  0  0  0  0  0999 V2000
    1.7492    1.4993    0.0000 N   0  0  0  0  0  0  0  0  0  0  0  0
    0.8496    0.9995    0.0000 C   0  0  0  0  0  0  0  0  0  0  0  0
    2.5988    0.9995    0.0000 C   0  0  0  0  0  0  0  0  0  0  0  0
    0.8496    0.0000    0.0000 C   0  0  0  0  0  0  0  0  0  0  0  0
    0.0000    1.4993    0.0000 C   0  0  0  0  0  0  0  0  0  0  0  0
  1  2  1  0  0  0  0 
  1  3  1  0  0  0  0 
  2  4  1  0  0  0  0 
  2  5  1  0  0  0  0 
M  END
> <Name>
2-PROPANAMINE, N-METHYL-

> <Source>
NIST2DMolFile

> <Tox>
50.4

> <CAS>
4747-21-1

$$$$

  CDK

 13 13  0  0  0  0  0  0  0  0999 V2000
    1.2490    2.1983    0.0000 C   0  0  0  0  0  0  0  0  0  0  0  0
    0.9992    1.2490    0.0000 C   0  0  0  0  0  0  0  0  0  0  0  0
    0.6495    0.2998    0.0000 C   0  0  0  0  0  0  0  0  0  0  0  0
    0.0000    1.5988    0.0000 C   0  0  0  0  0  0  0  0  0  0  0  0
    1.8985    0.9493    0.0000 C   0  0  0  0  0  0  0  0  0  0  0  0
    2.7479    1.4988    0.0000 O   0  0  0  0  0  0  0  0  0  0  0  0
    2.1983    0.0000    0.0000 C   0  0  0  0  0  0  0  0  0  0  0  0
    3.5473    0.8993    0.0000 C   0  0  0  0  0  0  0  0  0  0  0  0
    3.1975    0.0000    0.0000 C   0  0  0  0  0  0  0  0  0  0  0  0
    4.4965    1.1991    0.0000 C   0  0  0  0  0  0  0  0  0  0  0  0
    4.1968    2.1983    0.0000 C   0  0  0  0  0  0  0  0  0  0  0  0
    4.7963    0.2498    0.0000 C   0  0  0  0  0  0  0  0  0  0  0  0
    5.4458    1.4988    0.0000 C   0  0  0  0  0  0  0  0  0  0  0  0
  1  2  1  0  0  0  0 
  2  3  1  0  0  0  0 
  2  4  1  0  0  0  0 
  2  5  1  0  0  0  0 
  5  6  1  0  0  0  0 
  7  5  2  0  0  0  0 
  6  8  1  0  0  0  0 
  9  7  1  0  0  0  0 
  8  9  2  0  0  0  0 
  8 10  1  0  0  0  0 
 10 11  1  0  0  0  0 
 10 12  1  0  0  0  0 
 10 13  1  0  0  0  0 
M  END
> <Name>
FURAN, 2,5-BIS(1,1-DIMETHYLETHYL)-

> <Source>
NIST2DMolFile

> <Tox>
210

> <CAS>
4789-40-6

$$$$

  CDK

  7  6  0  0  0  0  0  0  0  0999 V2000
    0.0000   -1.3315    0.0000 C   0  0  0  0  0  0  0  0  0  0  0  0
    1.1518   -1.9950    0.0000 C   0  0  0  0  0  0  0  0  0  0  0  0
    2.3037   -1.3315    0.0000 C   0  0  0  0  0  0  0  0  0  0  0  0
    2.3037   -0.0000    0.0000 O   0  0  0  0  0  0  0  0  0  0  0  0
    3.4555   -1.9950    0.0000 C   0  0  0  0  0  0  0  0  0  0  0  0
    4.6073   -1.3315    0.0000 C   0  0  0  0  0  0  0  0  0  0  0  0
    4.6073   -0.0000    0.0000 C   0  0  0  0  0  0  0  0  0  0  0  0
  1  2  2  0  0  0  0 
  2  3  1  0  0  0  0 
  3  4  1  0  0  0  0 
  3  5  1  0  0  0  0 
  5  6  1  0  0  0  0 
  6  7  1  0  0  0  0 
M  END
> <Name>
1-HEXEN-3-OL

> <Source>
DSSTox2DMolFile

> <Tox>
134

> <CAS>
4798-44-1

$$$$

  CDK

 17 16  0  0  0  0  0  0  0  0999 V2000
    1.2043   -0.0000    0.0000 C   0  0  0  0  0  0  0  0  0  0  0  0
    2.3897   -0.6210    0.0000 C   0  0  0  0  0  0  0  0  0  0  0  0
    0.0000   -0.6210    0.0000 Cl  0  0  0  0  0  0  0  0  0  0  0  0
    3.5187   -0.0000    0.0000 C   0  0  0  0  0  0  0  0  0  0  0  0
    4.7042   -0.6210    0.0000 C   0  0  0  0  0  0  0  0  0  0  0  0
    5.9085   -0.0000    0.0000 C   0  0  0  0  0  0  0  0  0  0  0  0
    7.0939   -0.6210    0.0000 C   0  0  0  0  0  0  0  0  0  0  0  0
    8.2230   -0.0000    0.0000 C   0  0  0  0  0  0  0  0  0  0  0  0
    9.4084   -0.6210    0.0000 C   0  0  0  0  0  0  0  0  0  0  0  0
   10.5939   -0.0000    0.0000 C   0  0  0  0  0  0  0  0  0  0  0  0
   11.7982   -0.6210    0.0000 C   0  0  0  0  0  0  0  0  0  0  0  0
   12.9836   -0.0000    0.0000 C   0  0  0  0  0  0  0  0  0  0  0  0
   14.1126   -0.6210    0.0000 C   0  0  0  0  0  0  0  0  0  0  0  0
   15.2981   -0.0000    0.0000 C   0  0  0  0  0  0  0  0  0  0  0  0
   16.5024   -0.6210    0.0000 C   0  0  0  0  0  0  0  0  0  0  0  0
   17.6126   -0.0000    0.0000 C   0  0  0  0  0  0  0  0  0  0  0  0
   18.8168   -0.6210    0.0000 C   0  0  0  0  0  0  0  0  0  0  0  0
  1  2  1  0  0  0  0 
  1  3  1  0  0  0  0 
  2  4  1  0  0  0  0 
  4  5  1  0  0  0  0 
  5  6  1  0  0  0  0 
  6  7  1  0  0  0  0 
  7  8  1  0  0  0  0 
  8  9  1  0  0  0  0 
  9 10  1  0  0  0  0 
 10 11  1  0  0  0  0 
 11 12  1  0  0  0  0 
 12 13  1  0  0  0  0 
 13 14  1  0  0  0  0 
 14 15  1  0  0  0  0 
 15 16  1  0  0  0  0 
 16 17  1  0  0  0  0 
M  END
> <Name>
1-CHLOROHEXADECANE

> <Source>
DSSTox2DMolFile

> <Tox>
322

> <CAS>
4860-03-1

$$$$

  CDK

  9  8  0  0  0  0  0  0  0  0999 V2000
    9.8277    2.3773    0.5551 C   0  0  0  0  0  0  0  0  0  0  0  0
    8.6336    2.3439    1.1329 C   0  0  0  0  0  0  0  0  0  0  0  0
    8.1290    1.1803    1.9126 C   0  0  0  0  0  0  0  0  0  0  0  0
    6.6533    0.9208    1.6407 C   0  0  0  0  0  0  0  0  0  0  0  0
    5.7857    2.0929    2.0731 C   0  0  0  0  0  0  0  0  0  0  0  0
    4.3368    1.8975    1.6616 C   0  0  0  0  0  0  0  0  0  0  0  0
    3.4760    3.0720    2.1035 C   0  0  0  0  0  0  0  0  0  0  0  0
    2.0683    2.9049    1.6502 C   0  0  0  0  0  0  0  0  0  0  0  0
    1.0236    3.0400    2.4582 C   0  0  0  0  0  0  0  0  0  0  0  0
  1  2  2  0  0  0  0 
  2  3  1  0  0  0  0 
  3  4  1  0  0  0  0 
  4  5  1  0  0  0  0 
  6  5  1  0  0  0  0 
  6  7  1  0  0  0  0 
  7  8  1  0  0  0  0 
  9  8  2  0  0  0  0 
M  END
> <Name>
1,8-Nonadiene

> <Source>
NIST3DMolFile

> <Tox>
142.5

> <CAS>
4900-30-5

$$$$

  CDK

 11 12  0  0  0  0  0  0  0  0999 V2000
    4.5037    4.6354    3.3404 C   0  0  0  0  0  0  0  0  0  0  0  0
    4.5927    3.7893    2.0752 C   0  0  0  0  0  0  0  0  0  0  0  0
    5.1328    4.6334    0.9265 C   0  0  0  0  0  0  0  0  0  0  0  0
    3.2406    3.2201    1.7252 C   0  0  0  0  0  0  0  0  0  0  0  0
    5.4798    2.5348    2.3083 C   0  0  0  0  0  0  0  0  0  0  0  0
    3.2548    1.8182    1.7421 C   0  0  0  0  0  0  0  0  0  0  0  0
    2.0784    3.9088    1.4156 C   0  0  0  0  0  0  0  0  0  0  0  0
    4.6028    1.2916    2.0986 C   0  0  0  0  0  0  0  0  0  0  0  0
    2.1099    1.0940    1.4511 C   0  0  0  0  0  0  0  0  0  0  0  0
    0.9256    3.1795    1.1219 C   0  0  0  0  0  0  0  0  0  0  0  0
    0.9412    1.7892    1.1391 C   0  0  0  0  0  0  0  0  0  0  0  0
  1  2  1  0  0  0  0 
  2  3  1  0  0  0  0 
  4  2  1  0  0  0  0 
  2  5  1  0  0  0  0 
  4  6  2  0  0  0  0 
  7  4  1  0  0  0  0 
  5  8  1  0  0  0  0 
  8  6  1  0  0  0  0 
  6  9  1  0  0  0  0 
 10  7  2  0  0  0  0 
  9 11  2  0  0  0  0 
 11 10  1  0  0  0  0 
M  END
> <Name>
1H-INDENE, 2,3-DIHYDRO-1,1-DIMETHYL-

> <Source>
NIST3DMolFile

> <Tox>
191

> <CAS>
4912-92-9

$$$$

  CDK

 11 11  0  0  0  0  0  0  0  0999 V2000
    1.0584    3.2664    2.6242 C   0  0  0  0  0  0  0  0  0  0  0  0
    1.8083    2.1440    1.9192 C   0  0  0  0  0  0  0  0  0  0  0  0
    1.1989    0.7935    2.2631 C   0  0  0  0  0  0  0  0  0  0  0  0
    3.2654    2.2087    2.2907 C   0  0  0  0  0  0  0  0  0  0  0  0
    4.1350    2.9619    1.5003 C   0  0  0  0  0  0  0  0  0  0  0  0
    3.7556    1.5558    3.4219 C   0  0  0  0  0  0  0  0  0  0  0  0
    5.4847    3.0635    1.8385 C   0  0  0  0  0  0  0  0  0  0  0  0
    5.0995    1.6524    3.7604 C   0  0  0  0  0  0  0  0  0  0  0  0
    6.4021    3.9060    1.0101 C   0  0  0  0  0  0  0  0  0  0  0  0
    5.9621    2.4041    2.9724 C   0  0  0  0  0  0  0  0  0  0  0  0
    7.7946    3.3247    0.8933 C   0  0  0  0  0  0  0  0  0  0  0  0
  1  2  1  0  0  0  0 
  2  3  1  0  0  0  0 
  2  4  1  0  0  0  0 
  4  5  2  0  0  0  0 
  6  4  1  0  0  0  0 
  5  7  1  0  0  0  0 
  8  6  2  0  0  0  0 
  7  9  1  0  0  0  0 
  7 10  2  0  0  0  0 
 10  8  1  0  0  0  0 
  9 11  1  0  0  0  0 
M  END
> <Name>
BENZENE, 1-ETHYL-3-(1-METHYLETHYL)-

> <Source>
NIST3DMolFile

> <Tox>
192

> <CAS>
4920-99-4

$$$$

  CDK

  9  9  0  0  0  0  0  0  0  0999 V2000
    0.7030    1.2676    1.4169 C   0  0  0  0  0  0  0  0  0  0  0  0
    2.1169    1.3224    0.8831 C   0  0  0  0  0  0  0  0  0  0  0  0
    3.1217    1.7847    1.9474 C   0  0  0  0  0  0  0  0  0  0  0  0
    3.8468    3.0542    1.5094 C   0  0  0  0  0  0  0  0  0  0  0  0
    4.1309    0.6734    2.2571 C   0  0  0  0  0  0  0  0  0  0  0  0
    4.7356    3.6068    2.6165 C   0  0  0  0  0  0  0  0  0  0  0  0
    5.4761    1.2088    2.7281 C   0  0  0  0  0  0  0  0  0  0  0  0
    5.3193    2.5086    3.5106 C   0  0  0  0  0  0  0  0  0  0  0  0
    6.6477    2.9468    4.1017 C   0  0  0  0  0  0  0  0  0  0  0  0
  1  2  1  0  0  0  0 
  2  3  1  0  0  0  0 
  3  4  1  0  0  0  0 
  5  3  1  0  0  0  0 
  4  6  1  0  0  0  0 
  7  5  1  0  0  0  0 
  6  8  1  0  0  0  0 
  8  7  1  0  0  0  0 
  8  9  1  0  0  0  0 
M  END
> <Name>
CYCLOHEXANE, 1-ETHYL-4-METHYL-, CIS-

> <Source>
NIST3DMolFile

> <Tox>
152.6

> <CAS>
4926-78-7

$$$$

  CDK

  7  7  0  0  0  0  0  0  0  0999 V2000
    0.0000    0.0000    0.0000 C   0  0  0  0  0  0  0  0  0  0  0  0
   -0.7200   -1.3400    0.0000 C   0  0  0  0  0  0  0  0  0  0  0  0
   -0.1800   -2.6200    0.0000 C   0  0  0  0  0  0  0  0  0  0  0  0
   -2.0600   -1.4800    0.0000 N   0  0  0  0  0  0  0  0  0  0  0  0
    1.2600   -3.0400    0.0000 C   0  0  0  0  0  0  0  0  0  0  0  0
   -1.2200   -3.4800    0.0000 N   0  0  0  0  0  0  0  0  0  0  0  0
   -2.3200   -2.7600    0.0000 O   0  0  0  0  0  0  0  0  0  0  0  0
  1  2  1  0  0  0  0 
  2  3  1  0  0  0  0 
  2  4  2  0  0  0  0 
  3  5  1  0  0  0  0 
  3  6  2  0  0  0  0 
  4  7  1  0  0  0  0 
  7  6  1  0  0  0  0 
M  END
> <Name>
FURAZAN, DIMETHYL-

> <Source>
NIH3DMolFile

> <Tox>
156

> <CAS>
4975-21-7

$$$$

  CDK

 13 14  0  0  0  0  0  0  0  0999 V2000
    0.0000    0.0000    0.0000 O   0  0  0  0  0  0  0  0  0  0  0  0
    0.5400   -1.0800    0.1000 C   0  0  0  0  0  0  0  0  0  0  0  0
    1.9800   -1.3600    0.1400 C   0  0  0  0  0  0  0  0  0  0  0  0
   -0.1400   -2.3200    0.2200 N   0  0  0  0  0  0  0  0  0  0  0  0
    2.1400   -2.7200    0.2800 C   0  0  0  0  0  0  0  0  0  0  0  0
    3.0600   -0.4800    0.0400 C   0  0  0  0  0  0  0  0  0  0  0  0
    0.8200   -3.3400    0.3400 C   0  0  0  0  0  0  0  0  0  0  0  0
   -1.6000   -2.4800    0.2600 C   0  0  0  0  0  0  0  0  0  0  0  0
    3.4200   -3.3200    0.3200 C   0  0  0  0  0  0  0  0  0  0  0  0
    4.3400   -1.0400    0.1000 C   0  0  0  0  0  0  0  0  0  0  0  0
    0.5600   -4.5200    0.4600 O   0  0  0  0  0  0  0  0  0  0  0  0
   -2.3400   -1.2200   -0.1600 C   0  0  0  0  0  0  0  0  0  0  0  0
    4.5200   -2.4400    0.2400 C   0  0  0  0  0  0  0  0  0  0  0  0
  1  2  2  0  0  0  0 
  2  3  1  0  0  0  0 
  2  4  1  0  0  0  0 
  3  5  2  0  0  0  0 
  3  6  1  0  0  0  0 
  4  7  1  0  0  0  0 
  4  8  1  0  0  0  0 
  5  9  1  0  0  0  0 
  5  7  1  0  0  0  0 
 10  6  2  0  0  0  0 
  7 11  2  0  0  0  0 
  8 12  1  0  0  0  0 
  9 13  2  0  0  0  0 
 13 10  1  0  0  0  0 
M  END
> <Name>
1H-Isoindole-1,3(2H)-dione, N-ethyl-

> <Source>
NIH3DMolFile

> <Tox>
285.5

> <CAS>
5022-29-7

$$$$

  CDK

  7  7  0  0  0  0  0  0  0  0999 V2000
    4.1647    1.2078    0.0000 C   0  0  0  0  0  0  0  0  0  0  0  0
    2.7904    1.2078    0.0000 C   0  0  0  0  0  0  0  0  0  0  0  0
    2.0824    0.0000    0.0000 N   0  0  0  0  0  0  0  0  0  0  0  0
    2.0824    2.4156    0.0000 N   0  0  0  0  0  0  0  0  0  0  0  0
    0.6664    0.0000    0.0000 C   0  0  0  0  0  0  0  0  0  0  0  0
    0.6664    2.4156    0.0000 C   0  0  0  0  0  0  0  0  0  0  0  0
    0.0000    1.2078    0.0000 C   0  0  0  0  0  0  0  0  0  0  0  0
  1  2  1  0  0  0  0 
  2  3  1  0  0  0  0 
  2  4  2  0  0  0  0 
  3  5  2  0  0  0  0 
  6  4  1  0  0  0  0 
  5  7  1  0  0  0  0 
  7  6  2  0  0  0  0 
M  END
> <Name>
PYRIMIDINE, 2-METHYL-

> <Source>
IndexNet2DMolFile

> <Tox>
138

> <CAS>
5053-43-0

$$$$

  CDK

  6  5  0  0  0  0  0  0  0  0999 V2000
    0.0000    1.0024    0.0000 C   0  0  0  0  0  0  0  0  0  0  0  0
    0.8520    1.5036    0.0000 C   0  0  0  0  0  0  0  0  0  0  0  0
    1.7041    1.0024    0.0000 C   0  0  0  0  0  0  0  0  0  0  0  0
    1.7041    0.0000    0.0000 O   0  0  0  0  0  0  0  0  0  0  0  0
    2.5561    1.5036    0.0000 C   0  0  0  0  0  0  0  0  0  0  0  0
    3.4583    1.0024    0.0000 O   0  0  0  0  0  0  0  0  0  0  0  0
  1  2  1  0  0  0  0 
  2  3  1  0  0  0  0 
  3  4  2  0  0  0  0 
  3  5  1  0  0  0  0 
  5  6  1  0  0  0  0 
M  END
> <Name>
2-Butanone, 1-hydroxy-

> <Source>
NIST2DMolFile

> <Tox>
160

> <CAS>
5077-67-8

$$$$

  CDK

  6  5  0  0  0  0  0  0  0  0999 V2000
    3.6823    2.3313    3.6274 S   0  0  0  0  0  0  0  0  0  0  0  0
    3.8886    2.0337    1.8179 C   0  0  0  0  0  0  0  0  0  0  0  0
    2.1499    3.3105    3.7298 C   0  0  0  0  0  0  0  0  0  0  0  0
    4.3366    3.2758    1.0743 C   0  0  0  0  0  0  0  0  0  0  0  0
    4.8979    0.9146    1.6570 C   0  0  0  0  0  0  0  0  0  0  0  0
    0.8858    2.5373    3.4495 C   0  0  0  0  0  0  0  0  0  0  0  0
  1  2  1  0  0  0  0 
  1  3  1  0  0  0  0 
  2  4  1  0  0  0  0 
  2  5  1  0  0  0  0 
  3  6  1  0  0  0  0 
M  END
> <Name>
ETHYL ISOPROPYL SULFIDE

> <Source>
NIST3DMolFile

> <Tox>
107.5

> <CAS>
5145-99-3

$$$$

  CDK

  7  7  0  0  0  0  0  0  0  0999 V2000
    0.0000    0.8568    0.0000 C   0  0  0  0  0  0  0  0  0  0  0  0
    1.0080    0.8568    0.0000 C   0  0  0  0  0  0  0  0  0  0  0  0
    1.5120    1.7136    0.0000 C   0  0  0  0  0  0  0  0  0  0  0  0
    1.5120    0.0000    0.0000 S   0  0  0  0  0  0  0  0  0  0  0  0
    2.5199    1.7136    0.0000 C   0  0  0  0  0  0  0  0  0  0  0  0
    2.5199    0.0000    0.0000 C   0  0  0  0  0  0  0  0  0  0  0  0
    3.0239    0.8568    0.0000 C   0  0  0  0  0  0  0  0  0  0  0  0
  1  2  1  0  0  0  0 
  3  2  1  0  0  0  0 
  2  4  1  0  0  0  0 
  5  3  1  0  0  0  0 
  4  6  1  0  0  0  0 
  7  5  1  0  0  0  0 
  6  7  1  0  0  0  0 
M  END
> <Name>
2H-THIOPYRAN, TETRAHYDRO-2-METHYL-

> <Source>
NIST2DMolFile

> <Tox>
153

> <CAS>
5161-16-0

$$$$

  CDK

  6  5  0  0  0  0  0  0  0  0999 V2000
    5.9264    0.6834    0.9634 C   0  0  0  0  0  0  0  0  0  0  0  0
    5.5265    2.0896    1.1845 C   0  0  0  0  0  0  0  0  0  0  0  0
    4.2641    2.5028    1.3527 C   0  0  0  0  0  0  0  0  0  0  0  0
    3.1223    1.6045    1.3379 C   0  0  0  0  0  0  0  0  0  0  0  0
    1.8674    2.0378    1.4995 C   0  0  0  0  0  0  0  0  0  0  0  0
    0.6968    1.1348    1.4864 C   0  0  0  0  0  0  0  0  0  0  0  0
  1  2  1  0  0  0  0 
  2  3  2  0  0  0  0 
  3  4  1  0  0  0  0 
  4  5  2  0  0  0  0 
  5  6  1  0  0  0  0 
M  END
> <Name>
2,4-HEXADIENE (CIS,TRANS)

> <Source>
NIST3DMolFile

> <Tox>
83.5

> <CAS>
5194-50-3

$$$$

  CDK

  6  5  0  0  0  0  0  0  0  0999 V2000
    0.7785    2.9978    0.7197 C   0  0  0  0  0  0  0  0  0  0  0  0
    2.0026    2.4373    1.3305 C   0  0  0  0  0  0  0  0  0  0  0  0
    2.1324    2.2320    2.6466 C   0  0  0  0  0  0  0  0  0  0  0  0
    3.3463    1.6794    3.2237 C   0  0  0  0  0  0  0  0  0  0  0  0
    3.4784    1.4792    4.5402 C   0  0  0  0  0  0  0  0  0  0  0  0
    4.7032    0.9198    5.1506 C   0  0  0  0  0  0  0  0  0  0  0  0
  1  2  1  0  0  0  0 
  2  3  2  0  0  0  0 
  3  4  1  0  0  0  0 
  4  5  2  0  0  0  0 
  5  6  1  0  0  0  0 
M  END
> <Name>
2,4-HEXADIENE (TRANS,TRANS)

> <Source>
NIST3DMolFile

> <Tox>
82.2

> <CAS>
5194-51-4

$$$$

  CDK

 11 11  0  0  0  0  0  0  0  0999 V2000
    1.3304   -1.3304    0.0000 C   0  0  0  0  0  0  0  0  0  0  0  0
    2.4812   -1.9890    0.0000 C   0  0  0  0  0  0  0  0  0  0  0  0
    0.1796   -1.9890    0.0000 C   0  0  0  0  0  0  0  0  0  0  0  0
    1.3304   -0.0000    0.0000 Cl  0  0  0  0  0  0  0  0  0  0  0  0
    2.4812   -3.3194    0.0000 C   0  0  0  0  0  0  0  0  0  0  0  0
    0.1796   -3.3194    0.0000 C   0  0  0  0  0  0  0  0  0  0  0  0
    1.3304   -3.9913    0.0000 C   0  0  0  0  0  0  0  0  0  0  0  0
    1.3304   -5.3217    0.0000 C   0  0  0  0  0  0  0  0  0  0  0  0
    0.0000   -5.3217    0.0000 Cl  0  0  0  0  0  0  0  0  0  0  0  0
    2.6609   -5.3217    0.0000 Cl  0  0  0  0  0  0  0  0  0  0  0  0
    1.3304   -6.6521    0.0000 Cl  0  0  0  0  0  0  0  0  0  0  0  0
  1  2  2  0  0  0  0 
  1  3  1  0  0  0  0 
  1  4  1  0  0  0  0 
  2  5  1  0  0  0  0 
  6  3  2  0  0  0  0 
  5  7  2  0  0  0  0 
  7  6  1  0  0  0  0 
  7  8  1  0  0  0  0 
  8  9  1  0  0  0  0 
  8 10  1  0  0  0  0 
  8 11  1  0  0  0  0 
M  END
> <Name>
4-CHLOROBENZOTRICHLORIDE

> <Source>
DSSTox2DMolFile

> <Tox>
245

> <CAS>
5216-25-1

$$$$

  CDK

  7  7  0  0  0  0  0  0  0  0999 V2000
    0.0000    0.8568    0.0000 C   0  0  0  0  0  0  0  0  0  0  0  0
    1.0080    0.8568    0.0000 C   0  0  0  0  0  0  0  0  0  0  0  0
    1.5120    1.7136    0.0000 C   0  0  0  0  0  0  0  0  0  0  0  0
    1.5120    0.0000    0.0000 C   0  0  0  0  0  0  0  0  0  0  0  0
    2.5199    1.7136    0.0000 C   0  0  0  0  0  0  0  0  0  0  0  0
    2.5199    0.0000    0.0000 S   0  0  0  0  0  0  0  0  0  0  0  0
    3.0239    0.8568    0.0000 C   0  0  0  0  0  0  0  0  0  0  0  0
  1  2  1  0  0  0  0 
  3  2  1  0  0  0  0 
  2  4  1  0  0  0  0 
  5  3  1  0  0  0  0 
  4  6  1  0  0  0  0 
  7  5  1  0  0  0  0 
  6  7  1  0  0  0  0 
M  END
> <Name>
2H-THIOPYRAN, TETRAHYDRO-3-METHYL-

> <Source>
NIST2DMolFile

> <Tox>
158

> <CAS>
5258-50-4

$$$$

  CDK

 12 13  0  0  0  0  0  0  0  0999 V2000
    0.0000    0.0000    0.0000 C   0  0  0  0  0  0  0  0  0  0  0  0
    0.2400    1.4000    0.0200 O   0  0  0  0  0  0  0  0  0  0  0  0
    1.5000    1.8000    0.0000 C   0  0  0  0  0  0  0  0  0  0  0  0
    2.5400    0.8600    0.0000 C   0  0  0  0  0  0  0  0  0  0  0  0
    1.8000    3.1800   -0.0200 C   0  0  0  0  0  0  0  0  0  0  0  0
    3.8600    1.3000   -0.0200 C   0  0  0  0  0  0  0  0  0  0  0  0
    3.1200    3.6200   -0.0400 C   0  0  0  0  0  0  0  0  0  0  0  0
    4.1800    2.7000   -0.0400 C   0  0  0  0  0  0  0  0  0  0  0  0
    4.9200    0.3600   -0.0200 C   0  0  0  0  0  0  0  0  0  0  0  0
    5.5000    3.1200   -0.0600 N   0  0  0  0  0  0  0  0  0  0  0  0
    6.2400    0.8200   -0.0400 C   0  0  0  0  0  0  0  0  0  0  0  0
    6.5000    2.2000   -0.0600 C   0  0  0  0  0  0  0  0  0  0  0  0
  1  2  1  0  0  0  0 
  2  3  1  0  0  0  0 
  3  4  2  0  0  0  0 
  3  5  1  0  0  0  0 
  4  6  1  0  0  0  0 
  7  5  2  0  0  0  0 
  6  8  2  0  0  0  0 
  6  9  1  0  0  0  0 
  8  7  1  0  0  0  0 
  8 10  1  0  0  0  0 
 11  9  2  0  0  0  0 
 10 12  2  0  0  0  0 
 12 11  1  0  0  0  0 
M  END
> <Name>
6-METHOXYQUINOLINE

> <Source>
NIH3DMolFile

> <Tox>
306

> <CAS>
5263-87-6

$$$$

  CDK

 14 16  0  0  0  0  0  0  0  0999 V2000
    3.4314    3.1859    1.5227 C   0  0  0  0  0  0  0  0  0  0  0  0
    4.6528    3.8894    1.5227 C   0  0  0  0  0  0  0  0  0  0  0  0
    3.4363    1.7874    1.5227 C   0  0  0  0  0  0  0  0  0  0  0  0
    2.1398    3.9422    1.4990 C   0  0  0  0  0  0  0  0  0  0  0  0
    5.8598    3.1837    1.5585 C   0  0  0  0  0  0  0  0  0  0  0  0
    4.6469    5.3862    1.5092 C   0  0  0  0  0  0  0  0  0  0  0  0
    4.6505    1.0958    1.5450 C   0  0  0  0  0  0  0  0  0  0  0  0
    2.1772    0.9814    1.5235 C   0  0  0  0  0  0  0  0  0  0  0  0
    0.9227    3.0992    1.8385 C   0  0  0  0  0  0  0  0  0  0  0  0
    5.8487    1.7864    1.5703 C   0  0  0  0  0  0  0  0  0  0  0  0
    7.1891    3.8680    1.5626 C   0  0  0  0  0  0  0  0  0  0  0  0
    5.9920    6.0068    1.1729 C   0  0  0  0  0  0  0  0  0  0  0  0
    0.9610    1.7803    1.0925 C   0  0  0  0  0  0  0  0  0  0  0  0
    7.1017    5.3318    1.9539 C   0  0  0  0  0  0  0  0  0  0  0  0
  1  2  2  0  0  0  0 
  1  3  1  0  0  0  0 
  4  1  1  0  0  0  0 
  5  2  1  0  0  0  0 
  2  6  1  0  0  0  0 
  7  3  2  0  0  0  0 
  3  8  1  0  0  0  0 
  9  4  1  0  0  0  0 
  5 10  2  0  0  0  0 
 11  5  1  0  0  0  0 
  6 12  1  0  0  0  0 
 10  7  1  0  0  0  0 
  8 13  1  0  0  0  0 
 13  9  1  0  0  0  0 
 14 11  1  0  0  0  0 
 12 14  1  0  0  0  0 
M  END
> <Name>
PHENANTHRENE, 1,2,3,4,5,6,7,8-OCTAHYDRO-

> <Source>
NIST3DMolFile

> <Tox>
295

> <CAS>
5325-97-3

$$$$

  CDK

 11 12  0  0  0  0  0  0  0  0999 V2000
    0.0000    0.0000    0.0000 Br  0  0  0  0  0  0  0  0  0  0  0  0
   -1.6600    0.4600   -0.7600 C   0  0  0  0  0  0  0  0  0  0  0  0
   -2.8600    0.0800   -0.1200 C   0  0  0  0  0  0  0  0  0  0  0  0
   -1.7000    1.2000   -1.9600 C   0  0  0  0  0  0  0  0  0  0  0  0
   -4.0800    0.4400   -0.6800 C   0  0  0  0  0  0  0  0  0  0  0  0
   -2.9200    1.5400   -2.5400 C   0  0  0  0  0  0  0  0  0  0  0  0
   -4.1200    1.1800   -1.9200 C   0  0  0  0  0  0  0  0  0  0  0  0
   -5.2800    0.0600   -0.0600 C   0  0  0  0  0  0  0  0  0  0  0  0
   -5.3400    1.5000   -2.4800 N   0  0  0  0  0  0  0  0  0  0  0  0
   -6.5000    0.4200   -0.6600 C   0  0  0  0  0  0  0  0  0  0  0  0
   -6.5000    1.1400   -1.8600 C   0  0  0  0  0  0  0  0  0  0  0  0
  1  2  1  0  0  0  0 
  2  3  2  0  0  0  0 
  2  4  1  0  0  0  0 
  3  5  1  0  0  0  0 
  6  4  2  0  0  0  0 
  5  7  2  0  0  0  0 
  5  8  1  0  0  0  0 
  7  6  1  0  0  0  0 
  7  9  1  0  0  0  0 
 10  8  2  0  0  0  0 
  9 11  2  0  0  0  0 
 11 10  1  0  0  0  0 
M  END
> <Name>
6-BROMOQUINOLINE

> <Source>
NIH3DMolFile

> <Tox>
281

> <CAS>
5332-25-2

$$$$

  CDK

 10  9  0  0  0  0  0  0  0  0999 V2000
    0.0000    1.8334    0.0000 C   0  0  0  0  0  0  0  0  0  0  0  0
    1.0695    1.8334    0.0000 C   0  0  0  0  0  0  0  0  0  0  0  0
    1.5787    0.9676    0.0000 C   0  0  0  0  0  0  0  0  0  0  0  0
    2.4954    0.9676    0.0000 C   0  0  0  0  0  0  0  0  0  0  0  0
    3.5649    0.9676    0.0000 C   0  0  0  0  0  0  0  0  0  0  0  0
    2.4954    1.9862    0.0000 O   0  0  0  0  0  0  0  0  0  0  0  0
    2.4954    0.0000    0.0000 C   0  0  0  0  0  0  0  0  0  0  0  0
    4.5834    0.9676    0.0000 C   0  0  0  0  0  0  0  0  0  0  0  0
    3.5649    1.9352    0.0000 C   0  0  0  0  0  0  0  0  0  0  0  0
    3.5649    0.0000    0.0000 C   0  0  0  0  0  0  0  0  0  0  0  0
  1  2  1  0  0  0  0 
  2  3  1  0  0  0  0 
  3  4  1  0  0  0  0 
  4  5  1  0  0  0  0 
  4  6  1  0  0  0  0 
  4  7  1  0  0  0  0 
  5  8  1  0  0  0  0 
  5  9  1  0  0  0  0 
  5 10  1  0  0  0  0 
M  END
> <Name>
2,2,3-Trimethyl-hexan-3-ol

> <Source>
NIST2DMolFile

> <Tox>
170

> <CAS>
5340-41-0

$$$$

  CDK

  9  8  0  0  0  0  0  0  0  0999 V2000
    4.3129    0.5015    0.0000 C   0  0  0  0  0  0  0  0  0  0  0  0
    3.4604    0.0000    0.0000 C   0  0  0  0  0  0  0  0  0  0  0  0
    5.2156    0.0000    0.0000 C   0  0  0  0  0  0  0  0  0  0  0  0
    2.6078    0.5015    0.0000 C   0  0  0  0  0  0  0  0  0  0  0  0
    6.0682    0.5015    0.0000 C   0  0  0  0  0  0  0  0  0  0  0  0
    1.7051    0.0000    0.0000 O   0  0  0  0  0  0  0  0  0  0  0  0
    6.9207    0.0000    0.0000 C   0  0  0  0  0  0  0  0  0  0  0  0
    0.8526    0.5015    0.0000 C   0  0  0  0  0  0  0  0  0  0  0  0
    0.0000    0.0000    0.0000 C   0  0  0  0  0  0  0  0  0  0  0  0
  1  2  1  0  0  0  0 
  1  3  1  0  0  0  0 
  2  4  1  0  0  0  0 
  3  5  1  0  0  0  0 
  4  6  1  0  0  0  0 
  5  7  1  0  0  0  0 
  6  8  1  0  0  0  0 
  8  9  2  0  0  0  0 
M  END
> <Name>
HEXANE, 1-(ETHENYLOXY)-

> <Source>
NIST2DMolFile

> <Tox>
143

> <CAS>
5363-64-4

$$$$

  CDK

  6  5  0  0  0  0  0  0  0  0999 V2000
    1.7391    1.4906    0.0000 C   0  0  0  0  0  0  0  0  0  0  0  0
    0.8944    0.9938    0.0000 C   0  0  0  0  0  0  0  0  0  0  0  0
    2.5838    0.9938    0.0000 O   0  0  0  0  0  0  0  0  0  0  0  0
    0.8944    0.0000    0.0000 C   0  0  0  0  0  0  0  0  0  0  0  0
    0.0000    1.4906    0.0000 Cl  0  0  0  0  0  0  0  0  0  0  0  0
    3.4781    1.4906    0.0000 C   0  0  0  0  0  0  0  0  0  0  0  0
  1  2  1  0  0  0  0 
  1  3  1  0  0  0  0 
  2  4  1  0  0  0  0 
  2  5  1  0  0  0  0 
  3  6  1  0  0  0  0 
M  END
> <Name>
PROPANE, 2-CHLORO-1-METHOXY-

> <Source>
NIST2DMolFile

> <Tox>
99

> <CAS>
5390-71-6

$$$$

  CDK

 11 10  0  0  0  0  0  0  0  0999 V2000
    0.6651   -0.0000    0.0000 O   0  0  0  0  0  0  0  0  0  0  0  0
    0.0000   -1.1573    0.0000 C   0  0  0  0  0  0  0  0  0  0  0  0
    0.6651   -2.3080    0.0000 C   0  0  0  0  0  0  0  0  0  0  0  0
    1.9954   -2.3080    0.0000 C   0  0  0  0  0  0  0  0  0  0  0  0
    2.6605   -3.4587    0.0000 C   0  0  0  0  0  0  0  0  0  0  0  0
    2.6605   -1.1573    0.0000 C   0  0  0  0  0  0  0  0  0  0  0  0
    3.9908   -3.4587    0.0000 C   0  0  0  0  0  0  0  0  0  0  0  0
    4.6559   -2.3080    0.0000 C   0  0  0  0  0  0  0  0  0  0  0  0
    5.9861   -2.3080    0.0000 C   0  0  0  0  0  0  0  0  0  0  0  0
    6.6513   -1.1573    0.0000 C   0  0  0  0  0  0  0  0  0  0  0  0
    6.6513   -3.4587    0.0000 C   0  0  0  0  0  0  0  0  0  0  0  0
  1  2  2  0  0  0  0 
  2  3  1  0  0  0  0 
  3  4  2  0  0  0  0 
  4  5  1  0  0  0  0 
  4  6  1  0  0  0  0 
  5  7  1  0  0  0  0 
  7  8  1  0  0  0  0 
  8  9  2  0  0  0  0 
  9 10  1  0  0  0  0 
  9 11  1  0  0  0  0 
M  END
> <Name>
CITRAL

> <Source>
DSSTox2DMolFile

> <Tox>
227

> <CAS>
5392-40-5

$$$$

  CDK

  9  9  0  0  0  0  0  0  0  0999 V2000
    0.0000    0.0000    0.0000 C   0  0  0  0  0  0  0  0  0  0  0  0
    0.5039    0.8566    0.0000 C   0  0  0  0  0  0  0  0  0  0  0  0
    1.5116    0.8566    0.0000 C   0  0  0  0  0  0  0  0  0  0  0  0
    2.0155    1.7132    0.0000 C   0  0  0  0  0  0  0  0  0  0  0  0
    2.0155    0.0000    0.0000 C   0  0  0  0  0  0  0  0  0  0  0  0
    3.0233    1.7132    0.0000 C   0  0  0  0  0  0  0  0  0  0  0  0
    3.0233    0.0000    0.0000 C   0  0  0  0  0  0  0  0  0  0  0  0
    3.5271    0.8566    0.0000 C   0  0  0  0  0  0  0  0  0  0  0  0
    4.5349    0.8566    0.0000 O   0  0  0  0  0  0  0  0  0  0  0  0
  1  2  1  0  0  0  0 
  2  3  1  0  0  0  0 
  4  3  1  0  0  0  0 
  3  5  1  0  0  0  0 
  6  4  1  0  0  0  0 
  5  7  1  0  0  0  0 
  8  6  1  0  0  0  0 
  7  8  1  0  0  0  0 
  8  9  2  0  0  0  0 
M  END
> <Name>
CYCLOHEXANONE, 4-ETHYL-

> <Source>
NIST2DMolFile

> <Tox>
193

> <CAS>
5441-51-0

$$$$

  CDK

 14 13  0  0  0  0  0  0  0  0999 V2000
    0.0000    0.9563    0.0000 C   0  0  0  0  0  0  0  0  0  0  0  0
    0.9060    1.4596    0.0000 C   0  0  0  0  0  0  0  0  0  0  0  0
    1.7616    0.9563    0.0000 C   0  0  0  0  0  0  0  0  0  0  0  0
    2.6173    1.4596    0.0000 C   0  0  0  0  0  0  0  0  0  0  0  0
    3.4730    0.9563    0.0000 C   0  0  0  0  0  0  0  0  0  0  0  0
    4.3286    1.4596    0.0000 O   0  0  0  0  0  0  0  0  0  0  0  0
    3.4730    0.0000    0.0000 O   0  0  0  0  0  0  0  0  0  0  0  0
    5.1843    0.9563    0.0000 C   0  0  0  0  0  0  0  0  0  0  0  0
    6.0903    1.4596    0.0000 C   0  0  0  0  0  0  0  0  0  0  0  0
    6.9459    0.9563    0.0000 C   0  0  0  0  0  0  0  0  0  0  0  0
    7.8016    1.4596    0.0000 C   0  0  0  0  0  0  0  0  0  0  0  0
    8.7076    0.9563    0.0000 C   0  0  0  0  0  0  0  0  0  0  0  0
    9.5632    1.4596    0.0000 C   0  0  0  0  0  0  0  0  0  0  0  0
   10.4189    0.9563    0.0000 C   0  0  0  0  0  0  0  0  0  0  0  0
  1  2  1  0  0  0  0 
  2  3  1  0  0  0  0 
  3  4  1  0  0  0  0 
  4  5  1  0  0  0  0 
  5  6  1  0  0  0  0 
  5  7  2  0  0  0  0 
  6  8  1  0  0  0  0 
  8  9  1  0  0  0  0 
  9 10  1  0  0  0  0 
 10 11  1  0  0  0  0 
 11 12  1  0  0  0  0 
 12 13  1  0  0  0  0 
 13 14  1  0  0  0  0 
M  END
> <Name>
Pentanoic acid, heptyl ester

> <Source>
NIST2DMolFile

> <Tox>
245.2

> <CAS>
5451-80-9

$$$$

  CDK

 10  9  0  0  0  0  0  0  0  0999 V2000
    3.4871    1.4945    0.0000 C   0  0  0  0  0  0  0  0  0  0  0  0
    2.5904    0.9963    0.0000 C   0  0  0  0  0  0  0  0  0  0  0  0
    4.3340    0.9963    0.0000 C   0  0  0  0  0  0  0  0  0  0  0  0
    3.4871    2.4908    0.0000 O   0  0  0  0  0  0  0  0  0  0  0  0
    1.7435    1.4945    0.0000 C   0  0  0  0  0  0  0  0  0  0  0  0
    2.5904    0.0000    0.0000 O   0  0  0  0  0  0  0  0  0  0  0  0
    5.1808    1.4945    0.0000 C   0  0  0  0  0  0  0  0  0  0  0  0
    0.8967    0.9963    0.0000 C   0  0  0  0  0  0  0  0  0  0  0  0
    6.0775    0.9963    0.0000 C   0  0  0  0  0  0  0  0  0  0  0  0
    0.0000    1.4945    0.0000 C   0  0  0  0  0  0  0  0  0  0  0  0
  1  2  1  0  0  0  0 
  1  3  1  0  0  0  0 
  1  4  2  0  0  0  0 
  2  5  1  0  0  0  0 
  2  6  2  0  0  0  0 
  3  7  1  0  0  0  0 
  5  8  1  0  0  0  0 
  7  9  1  0  0  0  0 
  8 10  1  0  0  0  0 
M  END
> <Name>
4,5-OCTANEDIONE

> <Source>
NIST2DMolFile

> <Tox>
168

> <CAS>
5455-24-3

$$$$

  CDK

  9  9  0  0  0  0  0  0  0  0999 V2000
    1.4817    1.7371    0.0000 C   0  0  0  0  0  0  0  0  0  0  0  0
    0.5109    1.7371    0.0000 C   0  0  0  0  0  0  0  0  0  0  0  0
    1.9926    0.9197    0.0000 N   0  0  0  0  0  0  0  0  0  0  0  0
    0.0000    0.9197    0.0000 C   0  0  0  0  0  0  0  0  0  0  0  0
    1.4817    0.0000    0.0000 C   0  0  0  0  0  0  0  0  0  0  0  0
    3.0655    0.9197    0.0000 C   0  0  0  0  0  0  0  0  0  0  0  0
    0.5109    0.0000    0.0000 C   0  0  0  0  0  0  0  0  0  0  0  0
    3.5253    0.0511    0.0000 C   0  0  0  0  0  0  0  0  0  0  0  0
    4.4961    0.0511    0.0000 C   0  0  0  0  0  0  0  0  0  0  0  0
  1  2  1  0  0  0  0 
  3  1  1  0  0  0  0 
  2  4  1  0  0  0  0 
  5  3  1  0  0  0  0 
  3  6  1  0  0  0  0 
  4  7  1  0  0  0  0 
  7  5  1  0  0  0  0 
  6  8  1  0  0  0  0 
  8  9  1  0  0  0  0 
M  END
> <Name>
1-PROPYLPIPERIDINE

> <Source>
NIST2DMolFile

> <Tox>
151.5

> <CAS>
5470-02-0

$$$$

  CDK

  5  5  0  0  0  0  0  0  0  0999 V2000
    0.8693    0.4995    0.9500 C   0  0  0  0  0  0  0  0  0  0  0  0
    0.0000    0.0000    0.3683 N   0  0  0  0  0  0  0  0  0  0  0  0
    1.9450    1.1175    1.6699 C   0  0  0  0  0  0  0  0  0  0  0  0
    2.4561    2.4611    1.2160 C   0  0  0  0  0  0  0  0  0  0  0  0
    3.2954    1.2391    1.0111 C   0  0  0  0  0  0  0  0  0  0  0  0
  1  2  3  0  0  0  0 
  1  3  1  0  0  0  0 
  3  4  1  0  0  0  0 
  5  3  1  0  0  0  0 
  4  5  1  0  0  0  0 
M  END
> <Name>
CYCLOPROPANECARBONITRILE

> <Source>
NIST3DMolFile

> <Tox>
135.1

> <CAS>
5500-21-0

$$$$

  CDK

 13 13  0  0  0  0  0  0  0  0999 V2000
    1.9611    2.4274    3.7346 C   0  0  0  0  0  0  0  0  0  0  0  0
    3.4170    2.7637    3.4606 C   0  0  0  0  0  0  0  0  0  0  0  0
    1.0538    3.0857    2.7058 C   0  0  0  0  0  0  0  0  0  0  0  0
    3.8195    2.3339    2.0492 C   0  0  0  0  0  0  0  0  0  0  0  0
    1.4556    2.6952    1.2916 C   0  0  0  0  0  0  0  0  0  0  0  0
    2.9176    3.0189    1.0237 C   0  0  0  0  0  0  0  0  0  0  0  0
    5.2895    2.6567    1.7869 C   0  0  0  0  0  0  0  0  0  0  0  0
    6.2010    1.8320    2.6835 C   0  0  0  0  0  0  0  0  0  0  0  0
    7.6452    2.2911    2.5875 C   0  0  0  0  0  0  0  0  0  0  0  0
    8.5527    1.4467    3.4674 C   0  0  0  0  0  0  0  0  0  0  0  0
    9.9972    1.9107    3.3791 C   0  0  0  0  0  0  0  0  0  0  0  0
   10.9063    1.0652    4.2568 C   0  0  0  0  0  0  0  0  0  0  0  0
   12.3438    1.5262    4.1720 C   0  0  0  0  0  0  0  0  0  0  0  0
  2  1  1  0  0  0  0 
  1  3  1  0  0  0  0 
  2  4  1  0  0  0  0 
  5  3  1  0  0  0  0 
  6  4  1  0  0  0  0 
  4  7  1  0  0  0  0 
  5  6  1  0  0  0  0 
  7  8  1  0  0  0  0 
  8  9  1  0  0  0  0 
  9 10  1  0  0  0  0 
 10 11  1  0  0  0  0 
 11 12  1  0  0  0  0 
 12 13  1  0  0  0  0 
M  END
> <Name>
HEPTYLCYCLOHEXANE

> <Source>
NIST3DMolFile

> <Tox>
244

> <CAS>
5617-41-4

$$$$

  CDK

 11 11  0  0  0  0  0  0  0  0999 V2000
    3.4315    0.0220    0.3165 O   0  0  0  0  0  0  0  0  0  0  0  0
    2.1356    0.5855    0.1466 C   0  0  0  0  0  0  0  0  0  0  0  0
    1.0768   -0.5365    0.2074 C   0  0  0  0  0  0  0  0  0  0  0  0
    2.1175    1.2834   -1.2034 C   0  0  0  0  0  0  0  0  0  0  0  0
    1.4599   -1.7175    0.3400 O   0  0  0  0  0  0  0  0  0  0  0  0
   -0.3423   -0.2316    0.1179 C   0  0  0  0  0  0  0  0  0  0  0  0
   -0.8246    0.9895    0.5889 C   0  0  0  0  0  0  0  0  0  0  0  0
   -1.2212   -1.1606   -0.4389 C   0  0  0  0  0  0  0  0  0  0  0  0
   -2.1859    1.2816    0.5033 C   0  0  0  0  0  0  0  0  0  0  0  0
   -2.5825   -0.8685   -0.5248 C   0  0  0  0  0  0  0  0  0  0  0  0
   -3.0648    0.3526   -0.0536 C   0  0  0  0  0  0  0  0  0  0  0  0
  1  2  1  0  0  0  0 
  2  3  1  0  0  0  0 
  2  4  1  0  0  0  0 
  5  3  2  0  0  0  0 
  6  3  1  0  0  0  0 
  6  7  2  0  0  0  0 
  6  8  1  0  0  0  0 
  7  9  1  0  0  0  0 
  8 10  2  0  0  0  0 
  9 11  2  0  0  0  0 
 10 11  1  0  0  0  0 
M  END
> <Name>
2-Hydroxy-1-phenyl-propan-1-one

> <Source>
Chemidplus3DMolFile

> <Tox>
251

> <CAS>
5650-40-8

$$$$

  CDK

 14 15  0  0  0  0  0  0  0  0999 V2000
    8.2427    0.9572    2.0670 C   0  0  0  0  0  0  0  0  0  0  0  0
    6.8541    0.9799    2.0591 C   0  0  0  0  0  0  0  0  0  0  0  0
    8.9619    2.1458    2.0010 C   0  0  0  0  0  0  0  0  0  0  0  0
    6.1615    2.1938    1.9859 C   0  0  0  0  0  0  0  0  0  0  0  0
    8.2846    3.3585    1.9289 C   0  0  0  0  0  0  0  0  0  0  0  0
    6.8961    3.3832    1.9209 C   0  0  0  0  0  0  0  0  0  0  0  0
    4.6914    2.2177    1.9779 C   0  0  0  0  0  0  0  0  0  0  0  0
    3.9600    1.0260    2.0201 C   0  0  0  0  0  0  0  0  0  0  0  0
    4.0007    3.4334    1.9277 C   0  0  0  0  0  0  0  0  0  0  0  0
    2.5712    1.0506    2.0082 C   0  0  0  0  0  0  0  0  0  0  0  0
    2.6078    3.4620    1.9213 C   0  0  0  0  0  0  0  0  0  0  0  0
    1.8948    2.2623    1.9581 C   0  0  0  0  0  0  0  0  0  0  0  0
    1.8852    4.7718    1.9074 C   0  0  0  0  0  0  0  0  0  0  0  0
    0.6236    4.7386    1.0715 C   0  0  0  0  0  0  0  0  0  0  0  0
  1  2  2  0  0  0  0 
  3  1  1  0  0  0  0 
  2  4  1  0  0  0  0 
  5  3  2  0  0  0  0 
  4  6  2  0  0  0  0 
  4  7  1  0  0  0  0 
  6  5  1  0  0  0  0 
  7  8  2  0  0  0  0 
  9  7  1  0  0  0  0 
  8 10  1  0  0  0  0 
 11  9  2  0  0  0  0 
 10 12  2  0  0  0  0 
 12 11  1  0  0  0  0 
 11 13  1  0  0  0  0 
 13 14  1  0  0  0  0 
M  END
> <Name>
3-ETHYL-1,1'-BIPHENYL

> <Source>
NIST3DMolFile

> <Tox>
283.5

> <CAS>
5668-93-9

$$$$

  CDK

 12 11  0  0  0  0  0  0  0  0999 V2000
    4.3094    1.5033    0.0000 O   0  0  0  0  0  0  0  0  0  0  0  0
    3.4575    1.0022    0.0000 C   0  0  0  0  0  0  0  0  0  0  0  0
    5.2113    1.0022    0.0000 C   0  0  0  0  0  0  0  0  0  0  0  0
    2.6057    1.5033    0.0000 O   0  0  0  0  0  0  0  0  0  0  0  0
    3.4575    0.0000    0.0000 C   0  0  0  0  0  0  0  0  0  0  0  0
    6.0632    1.5033    0.0000 C   0  0  0  0  0  0  0  0  0  0  0  0
    1.7037    1.0022    0.0000 C   0  0  0  0  0  0  0  0  0  0  0  0
    6.0632    2.5055    0.0000 C   0  0  0  0  0  0  0  0  0  0  0  0
    6.9151    1.0022    0.0000 C   0  0  0  0  0  0  0  0  0  0  0  0
    0.8519    1.5033    0.0000 C   0  0  0  0  0  0  0  0  0  0  0  0
    0.8519    2.5055    0.0000 C   0  0  0  0  0  0  0  0  0  0  0  0
    0.0000    1.0022    0.0000 C   0  0  0  0  0  0  0  0  0  0  0  0
  1  2  1  0  0  0  0 
  1  3  1  0  0  0  0 
  2  4  1  0  0  0  0 
  2  5  1  0  0  0  0 
  3  6  1  0  0  0  0 
  4  7  1  0  0  0  0 
  6  8  1  0  0  0  0 
  6  9  1  0  0  0  0 
  7 10  1  0  0  0  0 
 10 11  1  0  0  0  0 
 10 12  1  0  0  0  0 
M  END
> <Name>
1-(1-Isobutoxy-ethoxy)-2-methyl-propane

> <Source>
NIST2DMolFile

> <Tox>
171.3

> <CAS>
5669-09-0

$$$$

  CDK

  8  7  0  0  0  0  0  0  0  0999 V2000
    0.0000    0.0000    0.0000 C   0  0  0  0  0  0  0  0  0  0  0  0
    0.5200    0.7800    1.2200 C   0  0  0  0  0  0  0  0  0  0  0  0
   -0.1600    0.3600    2.5000 C   0  0  0  0  0  0  0  0  0  0  0  0
    0.5000    2.2800    1.0000 C   0  0  0  0  0  0  0  0  0  0  0  0
    0.3800    1.1000    3.7400 C   0  0  0  0  0  0  0  0  0  0  0  0
    0.0600   -1.0200    2.7000 O   0  0  0  0  0  0  0  0  0  0  0  0
    0.8400    2.6800   -0.4400 C   0  0  0  0  0  0  0  0  0  0  0  0
    1.4800    2.8600    1.8600 O   0  0  0  0  0  0  0  0  0  0  0  0
  1  2  1  0  0  0  0 
  2  3  1  0  0  0  0 
  2  4  1  0  0  0  0 
  3  5  1  0  0  0  0 
  3  6  1  0  0  0  0 
  4  7  1  0  0  0  0 
  4  8  1  0  0  0  0 
M  END
> <Name>
2,4-PENTANEDIOL, 3-METHYL-

> <Source>
NIH3DMolFile

> <Tox>
211.5

> <CAS>
5683-44-3

$$$$

  CDK

 11 11  0  0  0  0  0  0  0  0999 V2000
   -0.1701   -2.3375    0.0000 C   0  0  0  0  0  0  0  0  0  0  0  0
    0.5444   -2.7500    0.0000 O   0  0  0  0  0  0  0  0  0  0  0  0
   -0.1701   -1.5125    0.0000 C   0  0  0  0  0  0  0  0  0  0  0  0
   -0.1701   -0.6875    0.0000 C   0  0  0  0  0  0  0  0  0  0  0  0
    0.5444   -0.2750    0.0000 C   0  0  0  0  0  0  0  0  0  0  0  0
   -0.8846   -0.2750    0.0000 C   0  0  0  0  0  0  0  0  0  0  0  0
    0.5444    0.5500    0.0000 C   0  0  0  0  0  0  0  0  0  0  0  0
   -0.8846    0.5500    0.0000 C   0  0  0  0  0  0  0  0  0  0  0  0
   -0.1701    0.9625    0.0000 C   0  0  0  0  0  0  0  0  0  0  0  0
   -0.1701    1.7875    0.0000 O   0  0  0  0  0  0  0  0  0  0  0  0
    0.5444    2.2000    0.0000 C   0  0  0  0  0  0  0  0  0  0  0  0
  1  2  2  0  0  0  0 
  1  3  1  0  0  0  0 
  3  4  1  0  0  0  0 
  4  5  1  0  0  0  0 
  4  6  2  0  0  0  0 
  5  7  2  0  0  0  0 
  8  6  1  0  0  0  0 
  7  9  1  0  0  0  0 
  9  8  2  0  0  0  0 
  9 10  1  0  0  0  0 
 10 11  1  0  0  0  0 
M  END
> <Name>
(4-Methoxy-phenyl)-acetaldehyde

> <Source>
Smiles

> <Tox>
255.5

> <CAS>
5703-26-4

$$$$

  CDK

 13 15  0  0  0  0  0  0  0  0999 V2000
    4.3655    2.4028    2.7962 C   0  0  0  0  0  0  0  0  0  0  0  0
    3.2567    3.4127    3.1064 C   0  0  0  0  0  0  0  0  0  0  0  0
    5.3430    3.2469    1.9598 C   0  0  0  0  0  0  0  0  0  0  0  0
    5.1186    1.7651    3.9495 C   0  0  0  0  0  0  0  0  0  0  0  0
    3.0599    4.1270    1.7440 C   0  0  0  0  0  0  0  0  0  0  0  0
    1.9996    2.8289    3.7317 C   0  0  0  0  0  0  0  0  0  0  0  0
    4.4422    4.0797    1.0491 C   0  0  0  0  0  0  0  0  0  0  0  0
    6.3622    2.3326    1.3045 C   0  0  0  0  0  0  0  0  0  0  0  0
    6.2101    0.8644    3.3752 C   0  0  0  0  0  0  0  0  0  0  0  0
    2.0095    3.4703    0.8500 C   0  0  0  0  0  0  0  0  0  0  0  0
    1.0596    2.1710    2.7392 C   0  0  0  0  0  0  0  0  0  0  0  0
    7.1287    1.5949    2.4005 C   0  0  0  0  0  0  0  0  0  0  0  0
    0.7393    3.1276    1.6046 C   0  0  0  0  0  0  0  0  0  0  0  0
  1  2  1  0  0  0  0 
  1  3  1  0  0  0  0 
  4  1  1  0  0  0  0 
  5  2  1  0  0  0  0 
  2  6  1  0  0  0  0 
  7  3  1  0  0  0  0 
  3  8  1  0  0  0  0 
  9  4  1  0  0  0  0 
  5  7  1  0  0  0  0 
 10  5  1  0  0  0  0 
  6 11  1  0  0  0  0 
  8 12  1  0  0  0  0 
 12  9  1  0  0  0  0 
 13 10  1  0  0  0  0 
 11 13  1  0  0  0  0 
M  END
> <Name>
Dodecahydrofluorene

> <Source>
NIST3DMolFile

> <Tox>
260

> <CAS>
5744-03-6

$$$$

  CDK

  7  6  0  0  0  0  0  0  0  0999 V2000
    0.5003    0.9006    0.0000 C   0  0  0  0  0  0  0  0  0  0  0  0
    1.5511    0.9006    0.0000 C   0  0  0  0  0  0  0  0  0  0  0  0
    0.0000    1.7012    0.0000 O   0  0  0  0  0  0  0  0  0  0  0  0
    0.0000    0.0000    0.0000 Cl  0  0  0  0  0  0  0  0  0  0  0  0
    2.0514    1.7012    0.0000 O   0  0  0  0  0  0  0  0  0  0  0  0
    2.0514    0.0000    0.0000 O   0  0  0  0  0  0  0  0  0  0  0  0
    3.0521    0.0000    0.0000 C   0  0  0  0  0  0  0  0  0  0  0  0
  1  2  1  0  0  0  0 
  1  3  2  0  0  0  0 
  1  4  1  0  0  0  0 
  2  5  2  0  0  0  0 
  2  6  1  0  0  0  0 
  6  7  1  0  0  0  0 
M  END
> <Name>
Acetic acid, chlorooxo-, methyl ester

> <Source>
NIST2DMolFile

> <Tox>
119

> <CAS>
5781-53-3

$$$$

  CDK

  6  5  0  0  0  0  0  0  0  0999 V2000
    0.4870   -0.0000    0.0000 C   0  0  0  0  0  0  0  0  0  0  0  0
    1.1503   -1.1537    0.0000 C   0  0  0  0  0  0  0  0  0  0  0  0
    1.8169   -2.3040    0.0000 C   0  0  0  0  0  0  0  0  0  0  0  0
    0.0000   -1.8169    0.0000 C   0  0  0  0  0  0  0  0  0  0  0  0
    2.3040   -0.4870    0.0000 C   0  0  0  0  0  0  0  0  0  0  0  0
    3.4542   -1.1537    0.0000 N   0  0  0  0  0  0  0  0  0  0  0  0
  1  2  1  0  0  0  0 
  2  3  1  0  0  0  0 
  2  4  1  0  0  0  0 
  2  5  1  0  0  0  0 
  5  6  1  0  0  0  0 
M  END
> <Name>
2,2-DIMETHYL-1-PROPYLAMIN

> <Source>
DSSTox2DMolFile

> <Tox>
82

> <CAS>
5813-64-9

$$$$

  CDK

 15 16  0  0  0  0  0  0  0  0999 V2000
    5.2392    5.5645    0.8492 C   0  0  0  0  0  0  0  0  0  0  0  0
    6.0921    5.2925    2.0976 C   0  0  0  0  0  0  0  0  0  0  0  0
    3.7878    5.2348    0.9897 C   0  0  0  0  0  0  0  0  0  0  0  0
    5.6086    6.0827    3.3025 C   0  0  0  0  0  0  0  0  0  0  0  0
    6.1845    3.8178    2.3822 C   0  0  0  0  0  0  0  0  0  0  0  0
    3.3087    3.9793    0.6104 C   0  0  0  0  0  0  0  0  0  0  0  0
    2.8911    6.1924    1.4684 C   0  0  0  0  0  0  0  0  0  0  0  0
    7.1307    3.0426    1.7023 C   0  0  0  0  0  0  0  0  0  0  0  0
    5.3407    3.2098    3.3133 C   0  0  0  0  0  0  0  0  0  0  0  0
    1.9540    3.6862    0.7142 C   0  0  0  0  0  0  0  0  0  0  0  0
    1.5370    5.8957    1.5714 C   0  0  0  0  0  0  0  0  0  0  0  0
    7.2277    1.6767    1.9532 C   0  0  0  0  0  0  0  0  0  0  0  0
    5.4387    1.8495    3.5662 C   0  0  0  0  0  0  0  0  0  0  0  0
    1.0662    4.6427    1.1952 C   0  0  0  0  0  0  0  0  0  0  0  0
    6.3870    1.0743    2.8839 C   0  0  0  0  0  0  0  0  0  0  0  0
  1  2  1  0  0  0  0 
  1  3  1  0  0  0  0 
  2  4  1  0  0  0  0 
  2  5  1  0  0  0  0 
  3  6  2  0  0  0  0 
  7  3  1  0  0  0  0 
  5  8  2  0  0  0  0 
  9  5  1  0  0  0  0 
  6 10  1  0  0  0  0 
 11  7  2  0  0  0  0 
  8 12  1  0  0  0  0 
 13  9  2  0  0  0  0 
 10 14  2  0  0  0  0 
 14 11  1  0  0  0  0 
 12 15  2  0  0  0  0 
 15 13  1  0  0  0  0 
M  END
> <Name>
1-METHYL-1,2-DIPHENYLETHANE

> <Source>
NIST3DMolFile

> <Tox>
280.5

> <CAS>
5814-85-7

$$$$

  CDK

 10 10  0  0  0  0  0  0  0  0999 V2000
   -1.0860   -0.8111    0.2274 N   0  0  0  0  0  0  0  0  0  0  0  0
   -2.0818    0.0462   -0.0725 C   0  0  0  0  0  0  0  0  0  0  0  0
    0.2470   -0.3949    0.1354 C   0  0  0  0  0  0  0  0  0  0  0  0
   -3.5166   -0.3588    0.1475 C   0  0  0  0  0  0  0  0  0  0  0  0
   -1.8232    1.1436   -0.5195 O   0  0  0  0  0  0  0  0  0  0  0  0
    0.5844    0.9425    0.3260 C   0  0  0  0  0  0  0  0  0  0  0  0
    1.2536   -1.3109   -0.1417 C   0  0  0  0  0  0  0  0  0  0  0  0
    1.9175    1.3058    0.2248 C   0  0  0  0  0  0  0  0  0  0  0  0
    2.5101   -0.9228   -0.2288 N   0  0  0  0  0  0  0  0  0  0  0  0
    2.8616    0.3371   -0.0598 C   0  0  0  0  0  0  0  0  0  0  0  0
  1  2  1  0  0  0  0 
  1  3  1  0  0  0  0 
  2  4  1  0  0  0  0 
  2  5  2  0  0  0  0 
  3  6  2  0  0  0  0 
  3  7  1  0  0  0  0 
  6  8  1  0  0  0  0 
  7  9  2  0  0  0  0 
  8 10  2  0  0  0  0 
  9 10  1  0  0  0  0 
M  END
> <Name>
3-ACETAMINOPYRIDINE

> <Source>
NIH3DMolFile

> <Tox>
326.5

> <CAS>
5867-45-8

$$$$

  CDK

 13 12  0  0  0  0  0  0  0  0999 V2000
    9.5175    0.5009    0.0000 C   0  0  0  0  0  0  0  0  0  0  0  0
    8.6659    0.0000    0.0000 C   0  0  0  0  0  0  0  0  0  0  0  0
    7.8144    0.5009    0.0000 C   0  0  0  0  0  0  0  0  0  0  0  0
    6.9127    0.0000    0.0000 C   0  0  0  0  0  0  0  0  0  0  0  0
    6.0612    0.5009    0.0000 C   0  0  0  0  0  0  0  0  0  0  0  0
    5.2096    0.0000    0.0000 C   0  0  0  0  0  0  0  0  0  0  0  0
    4.3079    0.5009    0.0000 C   0  0  0  0  0  0  0  0  0  0  0  0
    3.4564    0.0000    0.0000 O   0  0  0  0  0  0  0  0  0  0  0  0
    2.6048    0.5009    0.0000 C   0  0  0  0  0  0  0  0  0  0  0  0
    2.6048    1.5028    0.0000 O   0  0  0  0  0  0  0  0  0  0  0  0
    1.7031    0.0000    0.0000 C   0  0  0  0  0  0  0  0  0  0  0  0
    0.8516    0.5009    0.0000 C   0  0  0  0  0  0  0  0  0  0  0  0
    0.0000    0.0000    0.0000 C   0  0  0  0  0  0  0  0  0  0  0  0
  1  2  1  0  0  0  0 
  2  3  1  0  0  0  0 
  3  4  1  0  0  0  0 
  4  5  1  0  0  0  0 
  5  6  1  0  0  0  0 
  6  7  1  0  0  0  0 
  7  8  1  0  0  0  0 
  8  9  1  0  0  0  0 
 10  9  2  0  0  0  0 
  9 11  1  0  0  0  0 
 11 12  1  0  0  0  0 
 12 13  1  0  0  0  0 
M  END
> <Name>
Butanoic acid, heptyl ester

> <Source>
NIST2DMolFile

> <Tox>
225.8

> <CAS>
5870-93-9

$$$$

  CDK

  9  8  0  0  0  0  0  0  0  0999 V2000
   -2.6102    0.1274    0.0000 N   0  0  0  0  0  0  0  0  0  0  0  0
   -1.7906    0.0328    0.0000 C   0  0  0  0  0  0  0  0  0  0  0  0
   -1.6960    0.8523    0.0000 C   0  0  0  0  0  0  0  0  0  0  0  0
   -0.9711   -0.0619    0.0000 C   0  0  0  0  0  0  0  0  0  0  0  0
   -0.1515   -0.1565    0.0000 C   0  0  0  0  0  0  0  0  0  0  0  0
    0.6680   -0.2511    0.0000 C   0  0  0  0  0  0  0  0  0  0  0  0
    1.4876   -0.3458    0.0000 C   0  0  0  0  0  0  0  0  0  0  0  0
    1.5822    0.4738    0.0000 C   0  0  0  0  0  0  0  0  0  0  0  0
    2.3071   -0.4404    0.0000 C   0  0  0  0  0  0  0  0  0  0  0  0
  1  2  1  0  0  0  0 
  2  3  1  0  0  0  0 
  2  4  1  0  0  0  0 
  4  5  1  0  0  0  0 
  5  6  1  0  0  0  0 
  6  7  1  0  0  0  0 
  7  8  1  0  0  0  0 
  7  9  1  0  0  0  0 
M  END
> <Name>
1,5-Dimethyl-hexylamine

> <Source>
Smiles

> <Tox>
155

> <CAS>
5984-58-7

$$$$

  CDK

 19 19  0  0  0  0  0  0  0  0999 V2000
    3.7555    6.7573    5.4958 C   0  0  0  0  0  0  0  0  0  0  0  0
    4.0178    5.6885    4.4446 C   0  0  0  0  0  0  0  0  0  0  0  0
    2.4301    7.4760    5.2731 C   0  0  0  0  0  0  0  0  0  0  0  0
    3.4109    6.0644    3.0941 C   0  0  0  0  0  0  0  0  0  0  0  0
    1.4187    6.5755    4.5871 C   0  0  0  0  0  0  0  0  0  0  0  0
    1.8849    6.1580    3.1984 C   0  0  0  0  0  0  0  0  0  0  0  0
    3.8084    5.0514    2.0204 C   0  0  0  0  0  0  0  0  0  0  0  0
    5.3049    5.0629    1.7496 C   0  0  0  0  0  0  0  0  0  0  0  0
    5.7593    3.7753    1.0773 C   0  0  0  0  0  0  0  0  0  0  0  0
    7.2491    3.5244    1.2541 C   0  0  0  0  0  0  0  0  0  0  0  0
    7.6781    3.4078    2.7110 C   0  0  0  0  0  0  0  0  0  0  0  0
    7.2170    2.1330    3.4065 C   0  0  0  0  0  0  0  0  0  0  0  0
    5.8202    2.2593    3.9949 C   0  0  0  0  0  0  0  0  0  0  0  0
    5.4465    1.0538    4.8392 C   0  0  0  0  0  0  0  0  0  0  0  0
    4.0569    1.1811    5.4504 C   0  0  0  0  0  0  0  0  0  0  0  0
    2.9243    0.8330    4.4933 C   0  0  0  0  0  0  0  0  0  0  0  0
    2.4623    2.0177    3.6601 C   0  0  0  0  0  0  0  0  0  0  0  0
    1.3101    1.6322    2.7456 C   0  0  0  0  0  0  0  0  0  0  0  0
    0.9055    2.7787    1.8471 C   0  0  0  0  0  0  0  0  0  0  0  0
  1  2  1  0  0  0  0 
  3  1  1  0  0  0  0 
  2  4  1  0  0  0  0 
  5  3  1  0  0  0  0 
  4  6  1  0  0  0  0 
  4  7  1  0  0  0  0 
  6  5  1  0  0  0  0 
  7  8  1  0  0  0  0 
  8  9  1  0  0  0  0 
  9 10  1  0  0  0  0 
 10 11  1  0  0  0  0 
 11 12  1  0  0  0  0 
 12 13  1  0  0  0  0 
 13 14  1  0  0  0  0 
 14 15  1  0  0  0  0 
 15 16  1  0  0  0  0 
 16 17  1  0  0  0  0 
 17 18  1  0  0  0  0 
 18 19  1  0  0  0  0 
M  END
> <Name>
N-TRIDECYLCYCLOHEXANE

> <Source>
NIST3DMolFile

> <Tox>
346

> <CAS>
6006-33-3

$$$$

  CDK

 21 21  0  0  0  0  0  0  0  0999 V2000
   -6.8894    0.1815    0.1737 C   0  0  0  0  0  0  0  0  0  0  0  0
   -8.0551    1.1658    0.0078 C   0  0  0  0  0  0  0  0  0  0  0  0
   -7.1910   -1.1467   -0.5333 C   0  0  0  0  0  0  0  0  0  0  0  0
   -5.5907    0.7898   -0.3522 C   0  0  0  0  0  0  0  0  0  0  0  0
   -9.3756    0.5601    0.4780 C   0  0  0  0  0  0  0  0  0  0  0  0
   -8.5130   -1.7486   -0.0624 C   0  0  0  0  0  0  0  0  0  0  0  0
   -4.3673    0.1016    0.2546 C   0  0  0  0  0  0  0  0  0  0  0  0
   -9.6677   -0.7642   -0.2207 C   0  0  0  0  0  0  0  0  0  0  0  0
   -3.0368    0.6837   -0.2312 C   0  0  0  0  0  0  0  0  0  0  0  0
   -1.8122   -0.0527    0.3192 C   0  0  0  0  0  0  0  0  0  0  0  0
   -0.5138    0.5910   -0.1752 C   0  0  0  0  0  0  0  0  0  0  0  0
    0.7472   -0.0991    0.3553 C   0  0  0  0  0  0  0  0  0  0  0  0
    2.0442    0.5618   -0.1195 C   0  0  0  0  0  0  0  0  0  0  0  0
    3.3048   -0.1637    0.3627 C   0  0  0  0  0  0  0  0  0  0  0  0
    4.6007    0.4532   -0.1706 C   0  0  0  0  0  0  0  0  0  0  0  0
    5.8223   -0.3505    0.2818 C   0  0  0  0  0  0  0  0  0  0  0  0
    7.1526    0.2396   -0.1969 C   0  0  0  0  0  0  0  0  0  0  0  0
    8.4136   -0.5099    0.2470 C   0  0  0  0  0  0  0  0  0  0  0  0
    9.7050    0.0914   -0.3131 C   0  0  0  0  0  0  0  0  0  0  0  0
   10.9666   -0.6112    0.1951 C   0  0  0  0  0  0  0  0  0  0  0  0
   12.2555    0.0270   -0.3000 C   0  0  0  0  0  0  0  0  0  0  0  0
  1  2  1  0  0  0  0 
  1  3  1  0  0  0  0 
  1  4  1  0  0  0  0 
  2  5  1  0  0  0  0 
  3  6  1  0  0  0  0 
  4  7  1  0  0  0  0 
  5  8  1  0  0  0  0 
  6  8  1  0  0  0  0 
  7  9  1  0  0  0  0 
  9 10  1  0  0  0  0 
 10 11  1  0  0  0  0 
 11 12  1  0  0  0  0 
 12 13  1  0  0  0  0 
 13 14  1  0  0  0  0 
 14 15  1  0  0  0  0 
 15 16  1  0  0  0  0 
 16 17  1  0  0  0  0 
 17 18  1  0  0  0  0 
 18 19  1  0  0  0  0 
 19 20  1  0  0  0  0 
 20 21  1  0  0  0  0 
M  END
> <Name>
N-PENTADECYLCYCLOHEXANE

> <Source>
Chemidplus3DMolFile

> <Tox>
373

> <CAS>
6006-95-7

$$$$

  CDK

 12 12  0  0  0  0  0  0  0  0999 V2000
    2.4931    0.8476    0.0000 C   0  0  0  0  0  0  0  0  0  0  0  0
    2.9917    1.7452    0.0000 C   0  0  0  0  0  0  0  0  0  0  0  0
    1.4958    0.8476    0.0000 C   0  0  0  0  0  0  0  0  0  0  0  0
    2.4931    2.5928    0.0000 C   0  0  0  0  0  0  0  0  0  0  0  0
    3.9889    1.7452    0.0000 C   0  0  0  0  0  0  0  0  0  0  0  0
    0.9972    0.0000    0.0000 C   0  0  0  0  0  0  0  0  0  0  0  0
    4.4875    2.5928    0.0000 C   0  0  0  0  0  0  0  0  0  0  0  0
    4.4875    0.8476    0.0000 C   0  0  0  0  0  0  0  0  0  0  0  0
    0.0000    0.0000    0.0000 C   0  0  0  0  0  0  0  0  0  0  0  0
    5.4848    2.5928    0.0000 C   0  0  0  0  0  0  0  0  0  0  0  0
    5.4848    0.8476    0.0000 C   0  0  0  0  0  0  0  0  0  0  0  0
    5.9834    1.7452    0.0000 C   0  0  0  0  0  0  0  0  0  0  0  0
  1  2  1  0  0  0  0 
  1  3  1  0  0  0  0 
  2  4  1  0  0  0  0 
  2  5  1  0  0  0  0 
  3  6  1  0  0  0  0 
  7  5  2  0  0  0  0 
  5  8  1  0  0  0  0 
  6  9  1  0  0  0  0 
 10  7  1  0  0  0  0 
  8 11  2  0  0  0  0 
 12 10  2  0  0  0  0 
 11 12  1  0  0  0  0 
M  END
> <Name>
BENZENE, (1-METHYLPENTYL)-

> <Source>
NIST2DMolFile

> <Tox>
208

> <CAS>
6031-02-3

$$$$

  CDK

 12 11  0  0  0  0  0  0  0  0999 V2000
    3.4938    2.9947    0.0000 C   0  0  0  0  0  0  0  0  0  0  0  0
    2.5954    2.4956    0.0000 C   0  0  0  0  0  0  0  0  0  0  0  0
    4.3423    2.4956    0.0000 O   0  0  0  0  0  0  0  0  0  0  0  0
    3.4938    3.9929    0.0000 O   0  0  0  0  0  0  0  0  0  0  0  0
    2.5954    1.4974    0.0000 O   0  0  0  0  0  0  0  0  0  0  0  0
    1.7469    2.9947    0.0000 O   0  0  0  0  0  0  0  0  0  0  0  0
    5.1908    2.9947    0.0000 C   0  0  0  0  0  0  0  0  0  0  0  0
    1.7469    0.9982    0.0000 C   0  0  0  0  0  0  0  0  0  0  0  0
    0.8984    2.4956    0.0000 C   0  0  0  0  0  0  0  0  0  0  0  0
    6.0892    2.4956    0.0000 C   0  0  0  0  0  0  0  0  0  0  0  0
    1.7469    0.0000    0.0000 C   0  0  0  0  0  0  0  0  0  0  0  0
    0.0000    2.9947    0.0000 C   0  0  0  0  0  0  0  0  0  0  0  0
  1  2  1  0  0  0  0 
  1  3  1  0  0  0  0 
  1  4  2  0  0  0  0 
  2  5  1  0  0  0  0 
  2  6  1  0  0  0  0 
  3  7  1  0  0  0  0 
  5  8  1  0  0  0  0 
  6  9  1  0  0  0  0 
  7 10  1  0  0  0  0 
  8 11  1  0  0  0  0 
  9 12  1  0  0  0  0 
M  END
> <Name>
Acetic acid, diethoxy-, ethyl ester

> <Source>
NIST2DMolFile

> <Tox>
199

> <CAS>
6065-82-3

$$$$

  CDK

  8  7  0  0  0  0  0  0  0  0999 V2000
    1.8997   -0.8576    0.0000 Cl  0  0  0  0  0  0  0  0  0  0  0  0
    1.1618   -0.4886    0.0000 C   0  0  0  0  0  0  0  0  0  0  0  0
    0.4239   -0.1197    0.0000 C   0  0  0  0  0  0  0  0  0  0  0  0
    0.7928   -1.2265    0.0000 Cl  0  0  0  0  0  0  0  0  0  0  0  0
    1.5307    0.2493    0.0000 Cl  0  0  0  0  0  0  0  0  0  0  0  0
    0.0549   -0.8576    0.0000 O   0  0  0  0  0  0  0  0  0  0  0  0
   -0.3141    0.2493    0.0000 C   0  0  0  0  0  0  0  0  0  0  0  0
   -1.0520    0.6182    0.0000 C   0  0  0  0  0  0  0  0  0  0  0  0
  1  2  1  0  0  0  0 
  2  3  1  0  0  0  0 
  2  4  1  0  0  0  0 
  2  5  1  0  0  0  0 
  3  6  1  0  0  0  0 
  3  7  1  0  0  0  0 
  7  8  1  0  0  0  0 
M  END
> <Name>
2-Butanol, 1,1,1-trichloro-

> <Source>
Smiles

> <Tox>
171

> <CAS>
6111-61-1

$$$$

  CDK

 11 10  0  0  0  0  0  0  0  0999 V2000
   -2.0902    1.6761   -0.2852 Cl  0  0  0  0  0  0  0  0  0  0  0  0
   -0.9402    0.4246    0.2566 C   0  0  0  0  0  0  0  0  0  0  0  0
   -0.8543    0.4551    2.0403 Cl  0  0  0  0  0  0  0  0  0  0  0  0
    0.4489    0.7619   -0.2430 C   0  0  0  0  0  0  0  0  0  0  0  0
   -1.5121   -0.9092   -0.2035 C   0  0  0  0  0  0  0  0  0  0  0  0
    1.3458   -0.1689    0.2066 O   0  0  0  0  0  0  0  0  0  0  0  0
    0.7350    1.7406   -0.9216 O   0  0  0  0  0  0  0  0  0  0  0  0
   -2.3366   -1.5422    0.4591 O   0  0  0  0  0  0  0  0  0  0  0  0
   -1.0706   -1.4359   -1.5506 C   0  0  0  0  0  0  0  0  0  0  0  0
    2.7095    0.0541   -0.1655 C   0  0  0  0  0  0  0  0  0  0  0  0
    3.5647   -1.0562    0.4068 C   0  0  0  0  0  0  0  0  0  0  0  0
  1  2  1  0  0  0  0 
  3  2  1  0  0  0  0 
  2  4  1  0  0  0  0 
  2  5  1  0  0  0  0 
  6  4  1  0  0  0  0 
  7  4  2  0  0  0  0 
  8  5  2  0  0  0  0 
  5  9  1  0  0  0  0 
  6 10  1  0  0  0  0 
 10 11  1  0  0  0  0 
M  END
> <Name>
BUTANOIC ACID, 2,2-DICHLORO-3-OXO-, ETHYL ESTER

> <Source>
Chemidplus3DMolFile

> <Tox>
206

> <CAS>
6134-66-3

$$$$

  CDK

 13 12  0  0  0  0  0  0  0  0999 V2000
    0.0000   -2.6588    0.0000 C   0  0  0  0  0  0  0  0  0  0  0  0
    1.1510   -1.9912    0.0000 C   0  0  0  0  0  0  0  0  0  0  0  0
    2.3020   -2.6588    0.0000 C   0  0  0  0  0  0  0  0  0  0  0  0
    3.4530   -1.9912    0.0000 C   0  0  0  0  0  0  0  0  0  0  0  0
    4.6040   -2.6588    0.0000 C   0  0  0  0  0  0  0  0  0  0  0  0
    5.7550   -1.9912    0.0000 C   0  0  0  0  0  0  0  0  0  0  0  0
    6.9059   -2.6588    0.0000 C   0  0  0  0  0  0  0  0  0  0  0  0
    8.0569   -1.9912    0.0000 C   0  0  0  0  0  0  0  0  0  0  0  0
    9.2079   -2.6588    0.0000 C   0  0  0  0  0  0  0  0  0  0  0  0
   10.3589   -1.9912    0.0000 C   0  0  0  0  0  0  0  0  0  0  0  0
   10.3589   -0.6676    0.0000 C   0  0  0  0  0  0  0  0  0  0  0  0
    9.2079   -0.0000    0.0000 O   0  0  0  0  0  0  0  0  0  0  0  0
   11.5099   -0.0000    0.0000 C   0  0  0  0  0  0  0  0  0  0  0  0
  1  2  1  0  0  0  0 
  2  3  1  0  0  0  0 
  3  4  1  0  0  0  0 
  4  5  1  0  0  0  0 
  5  6  1  0  0  0  0 
  6  7  1  0  0  0  0 
  7  8  1  0  0  0  0 
  8  9  1  0  0  0  0 
  9 10  1  0  0  0  0 
 10 11  1  0  0  0  0 
 11 12  2  0  0  0  0 
 11 13  1  0  0  0  0 
M  END
> <Name>
METHYL DECYL KETONE

> <Source>
DSSTox2DMolFile

> <Tox>
246.5

> <CAS>
6175-49-1

$$$$

  CDK

 11 11  0  0  0  0  0  0  0  0999 V2000
    0.0000    0.0000    0.0000 C   0  0  0  0  0  0  0  0  0  0  0  0
   -0.1400   -1.4800   -0.3600 C   0  0  0  0  0  0  0  0  0  0  0  0
    1.1400    0.6800   -0.7800 C   0  0  0  0  0  0  0  0  0  0  0  0
    1.2000   -2.2200   -0.1600 C   0  0  0  0  0  0  0  0  0  0  0  0
    2.4800   -0.0600   -0.5800 C   0  0  0  0  0  0  0  0  0  0  0  0
    2.3400   -1.5600   -0.9200 C   0  0  0  0  0  0  0  0  0  0  0  0
    2.1200   -1.7000   -2.3200 O   0  0  0  0  0  0  0  0  0  0  0  0
    2.4800   -2.9000   -2.7800 C   0  0  0  0  0  0  0  0  0  0  0  0
    2.5400   -3.8800   -2.0800 O   0  0  0  0  0  0  0  0  0  0  0  0
    2.8200   -2.9600   -4.2400 C   0  0  0  0  0  0  0  0  0  0  0  0
    2.8800   -1.5600   -4.8800 C   0  0  0  0  0  0  0  0  0  0  0  0
  1  2  1  0  0  0  0 
  1  3  1  0  0  0  0 
  2  4  1  0  0  0  0 
  3  5  1  0  0  0  0 
  4  6  1  0  0  0  0 
  6  5  1  0  0  0  0 
  6  7  1  0  0  0  0 
  7  8  1  0  0  0  0 
  8  9  2  0  0  0  0 
  8 10  1  0  0  0  0 
 10 11  1  0  0  0  0 
M  END
> <Name>
Propionic acid cyclohexyl ester

> <Source>
NIH3DMolFile

> <Tox>
193

> <CAS>
6222-35-1

$$$$

  CDK

 10 10  0  0  0  0  0  0  0  0999 V2000
    1.4930    0.8460    0.0000 C   0  0  0  0  0  0  0  0  0  0  0  0
    1.9906    1.7418    0.0000 C   0  0  0  0  0  0  0  0  0  0  0  0
    0.4977    0.8460    0.0000 C   0  0  0  0  0  0  0  0  0  0  0  0
    2.9859    1.7418    0.0000 C   0  0  0  0  0  0  0  0  0  0  0  0
    0.0000    0.0000    0.0000 Cl  0  0  0  0  0  0  0  0  0  0  0  0
    3.4836    2.5878    0.0000 C   0  0  0  0  0  0  0  0  0  0  0  0
    3.4836    0.8460    0.0000 C   0  0  0  0  0  0  0  0  0  0  0  0
    4.4789    2.5878    0.0000 C   0  0  0  0  0  0  0  0  0  0  0  0
    4.4789    0.8460    0.0000 C   0  0  0  0  0  0  0  0  0  0  0  0
    4.9765    1.7418    0.0000 C   0  0  0  0  0  0  0  0  0  0  0  0
  1  2  1  0  0  0  0 
  1  3  2  0  0  0  0 
  2  4  1  0  0  0  0 
  3  5  1  0  0  0  0 
  6  4  2  0  0  0  0 
  4  7  1  0  0  0  0 
  8  6  1  0  0  0  0 
  7  9  2  0  0  0  0 
 10  8  2  0  0  0  0 
  9 10  1  0  0  0  0 
M  END
> <Name>
BENZENE, (3-CHLOROALLYL)-

> <Source>
NIST2DMolFile

> <Tox>
211

> <CAS>
6268-37-7

$$$$

  CDK

 11 11  0  0  0  0  0  0  0  0999 V2000
    0.0000    0.0000    0.0000 C   0  0  0  0  0  0  0  0  0  0  0  0
    0.0400   -1.2000   -0.9600 C   0  0  0  0  0  0  0  0  0  0  0  0
   -1.1400   -1.1800   -1.9600 C   0  0  0  0  0  0  0  0  0  0  0  0
   -2.3600   -1.2600   -1.2400 O   0  0  0  0  0  0  0  0  0  0  0  0
   -2.9200   -2.4400   -1.0800 C   0  0  0  0  0  0  0  0  0  0  0  0
   -4.3000   -2.5400   -0.8400 C   0  0  0  0  0  0  0  0  0  0  0  0
   -2.1200   -3.6000   -1.1400 C   0  0  0  0  0  0  0  0  0  0  0  0
   -4.8800   -3.8000   -0.6600 C   0  0  0  0  0  0  0  0  0  0  0  0
   -5.0400   -1.4600   -0.7600 O   0  0  0  0  0  0  0  0  0  0  0  0
   -2.7000   -4.8600   -0.9600 C   0  0  0  0  0  0  0  0  0  0  0  0
   -4.0800   -4.9600   -0.7200 C   0  0  0  0  0  0  0  0  0  0  0  0
  1  2  1  0  0  0  0 
  2  3  1  0  0  0  0 
  3  4  1  0  0  0  0 
  4  5  1  0  0  0  0 
  5  6  2  0  0  0  0 
  5  7  1  0  0  0  0 
  6  8  1  0  0  0  0 
  6  9  1  0  0  0  0 
 10  7  2  0  0  0  0 
  8 11  2  0  0  0  0 
 11 10  1  0  0  0  0 
M  END
> <Name>
2-Propoxy-phenol

> <Source>
NIH3DMolFile

> <Tox>
227

> <CAS>
6280-96-2

$$$$

  CDK

 11 11  0  0  0  0  0  0  0  0999 V2000
    1.7179    0.5053    0.0000 C   0  0  0  0  0  0  0  0  0  0  0  0
    1.7179    1.5158    0.0000 C   0  0  0  0  0  0  0  0  0  0  0  0
    0.8590    0.0000    0.0000 C   0  0  0  0  0  0  0  0  0  0  0  0
    0.8590    1.9705    0.0000 C   0  0  0  0  0  0  0  0  0  0  0  0
    2.5769    1.9705    0.0000 C   0  0  0  0  0  0  0  0  0  0  0  0
    0.0000    0.5053    0.0000 C   0  0  0  0  0  0  0  0  0  0  0  0
    0.0000    1.5158    0.0000 C   0  0  0  0  0  0  0  0  0  0  0  0
    0.8590    2.9811    0.0000 N   0  0  0  0  0  0  0  0  0  0  0  0
    2.0716    2.8800    0.0000 C   0  0  0  0  0  0  0  0  0  0  0  0
    3.0821    1.1621    0.0000 C   0  0  0  0  0  0  0  0  0  0  0  0
    3.4863    2.5263    0.0000 C   0  0  0  0  0  0  0  0  0  0  0  0
  2  1  2  0  0  0  0 
  1  3  1  0  0  0  0 
  4  2  1  0  0  0  0 
  2  5  1  0  0  0  0 
  3  6  2  0  0  0  0 
  7  4  2  0  0  0  0 
  4  8  1  0  0  0  0 
  5  9  1  0  0  0  0 
  5 10  1  0  0  0  0 
  5 11  1  0  0  0  0 
  6  7  1  0  0  0  0 
M  END
> <Name>
2-tert-Butylaniline

> <Source>
NIST2DMolFile

> <Tox>
234

> <CAS>
6310-21-0

$$$$

  CDK

  8  8  0  0  0  0  0  0  0  0999 V2000
    0.0000    0.8481    0.0000 Cl  0  0  0  0  0  0  0  0  0  0  0  0
    0.9978    0.8481    0.0000 C   0  0  0  0  0  0  0  0  0  0  0  0
    1.4967    1.7462    0.0000 C   0  0  0  0  0  0  0  0  0  0  0  0
    1.4967    0.0000    0.0000 C   0  0  0  0  0  0  0  0  0  0  0  0
    0.9978    2.5943    0.0000 S   0  0  0  0  0  0  0  0  0  0  0  0
    2.4945    1.7462    0.0000 C   0  0  0  0  0  0  0  0  0  0  0  0
    2.4945    0.0000    0.0000 C   0  0  0  0  0  0  0  0  0  0  0  0
    2.9934    0.8481    0.0000 C   0  0  0  0  0  0  0  0  0  0  0  0
  1  2  1  0  0  0  0 
  3  2  2  0  0  0  0 
  2  4  1  0  0  0  0 
  3  5  1  0  0  0  0 
  6  3  1  0  0  0  0 
  4  7  2  0  0  0  0 
  8  6  2  0  0  0  0 
  7  8  1  0  0  0  0 
M  END
> <Name>
Benzenethiol, 2-chloro-

> <Source>
NIST2DMolFile

> <Tox>
205.5

> <CAS>
6320-03-2

$$$$

  CDK

 10 10  0  0  0  0  0  0  0  0999 V2000
    0.0000    0.0000    0.0000 C   0  0  0  0  0  0  0  0  0  0  0  0
    1.4800   -0.0400    0.2800 C   0  0  0  0  0  0  0  0  0  0  0  0
    2.1400   -1.2600    0.4400 C   0  0  0  0  0  0  0  0  0  0  0  0
    2.2000    1.1800    0.3600 C   0  0  0  0  0  0  0  0  0  0  0  0
    3.5200   -1.2800    0.7000 C   0  0  0  0  0  0  0  0  0  0  0  0
    1.2200   -2.9000    0.3600 Br  0  0  0  0  0  0  0  0  0  0  0  0
    3.5800    1.1400    0.6000 C   0  0  0  0  0  0  0  0  0  0  0  0
    1.3800    2.8600    0.1200 Br  0  0  0  0  0  0  0  0  0  0  0  0
    4.2400   -0.0800    0.7800 C   0  0  0  0  0  0  0  0  0  0  0  0
    6.1000   -0.1200    1.1000 Br  0  0  0  0  0  0  0  0  0  0  0  0
  1  2  1  0  0  0  0 
  2  3  2  0  0  0  0 
  2  4  1  0  0  0  0 
  3  5  1  0  0  0  0 
  3  6  1  0  0  0  0 
  7  4  2  0  0  0  0 
  4  8  1  0  0  0  0 
  5  9  2  0  0  0  0 
  9  7  1  0  0  0  0 
  9 10  1  0  0  0  0 
M  END
> <Name>
2,4,6-Tribromotoluene

> <Source>
NIH3DMolFile

> <Tox>
290

> <CAS>
6320-40-7

$$$$

  CDK

 10 10  0  0  0  0  0  0  0  0999 V2000
    4.1977    2.4253    0.0000 C   0  0  0  0  0  0  0  0  0  0  0  0
    4.8973    1.2127    0.0000 O   0  0  0  0  0  0  0  0  0  0  0  0
    2.7984    2.4253    0.0000 C   0  0  0  0  0  0  0  0  0  0  0  0
    2.0988    1.2127    0.0000 C   0  0  0  0  0  0  0  0  0  0  0  0
    2.0988    3.6380    0.0000 C   0  0  0  0  0  0  0  0  0  0  0  0
    2.7984    0.0000    0.0000 Cl  0  0  0  0  0  0  0  0  0  0  0  0
    0.6996    1.2127    0.0000 C   0  0  0  0  0  0  0  0  0  0  0  0
    0.6996    3.6380    0.0000 C   0  0  0  0  0  0  0  0  0  0  0  0
    0.0000    2.4253    0.0000 C   0  0  0  0  0  0  0  0  0  0  0  0
    0.0000    4.8506    0.0000 Cl  0  0  0  0  0  0  0  0  0  0  0  0
  1  2  2  0  0  0  0 
  1  3  1  0  0  0  0 
  3  4  2  0  0  0  0 
  3  5  1  0  0  0  0 
  4  6  1  0  0  0  0 
  4  7  1  0  0  0  0 
  8  5  2  0  0  0  0 
  7  9  2  0  0  0  0 
  9  8  1  0  0  0  0 
  8 10  1  0  0  0  0 
M  END
> <Name>
2,5-Dichloro-benzaldehyde

> <Source>
IndexNet2DMolFile

> <Tox>
232

> <CAS>
6361-23-5

$$$$

  CDK

 13 13  0  0  0  0  0  0  0  0999 V2000
    1.8416    1.8535    0.3584 O   0  0  0  0  0  0  0  0  0  0  0  0
    0.9978    0.7847    0.3230 C   0  0  0  0  0  0  0  0  0  0  0  0
    2.0558    2.5510   -0.8670 C   0  0  0  0  0  0  0  0  0  0  0  0
   -0.3638    0.9775    0.5574 C   0  0  0  0  0  0  0  0  0  0  0  0
    1.4850   -0.4946    0.0550 C   0  0  0  0  0  0  0  0  0  0  0  0
   -1.2379   -0.1090    0.5241 C   0  0  0  0  0  0  0  0  0  0  0  0
    2.8124   -0.6959   -0.1755 O   0  0  0  0  0  0  0  0  0  0  0  0
    0.6107   -1.5810    0.0215 C   0  0  0  0  0  0  0  0  0  0  0  0
   -2.6935    0.0969    0.7752 C   0  0  0  0  0  0  0  0  0  0  0  0
   -0.7507   -1.3883    0.2563 C   0  0  0  0  0  0  0  0  0  0  0  0
    3.2284   -2.0340   -0.4417 C   0  0  0  0  0  0  0  0  0  0  0  0
   -3.4740    0.3846   -0.4812 C   0  0  0  0  0  0  0  0  0  0  0  0
   -4.5117   -0.3454   -0.9055 C   0  0  0  0  0  0  0  0  0  0  0  0
  1  2  1  0  0  0  0 
  1  3  1  0  0  0  0 
  4  2  1  0  0  0  0 
  2  5  2  0  0  0  0 
  6  4  2  0  0  0  0 
  7  5  1  0  0  0  0 
  5  8  1  0  0  0  0 
  6  9  1  0  0  0  0 
  6 10  1  0  0  0  0 
  7 11  1  0  0  0  0 
 10  8  2  0  0  0  0 
  9 12  1  0  0  0  0 
 12 13  2  0  0  0  0 
M  END
> <Name>
4-Allyl-1,2-dimethoxy-benzene

> <Source>
Chemidplus3DMolFile

> <Tox>
270.5

> <CAS>
6380-24-1

$$$$

  CDK

 10  9  0  0  0  0  0  0  0  0999 V2000
    0.3302    0.5759    0.0000 O   0  0  0  0  0  0  0  0  0  0  0  0
    0.1014   -0.2168    0.0000 C   0  0  0  0  0  0  0  0  0  0  0  0
    0.6734   -0.8113    0.0000 O   0  0  0  0  0  0  0  0  0  0  0  0
   -0.6995   -0.4149    0.0000 O   0  0  0  0  0  0  0  0  0  0  0  0
    1.4743   -0.6131    0.0000 C   0  0  0  0  0  0  0  0  0  0  0  0
   -1.2715    0.1795    0.0000 C   0  0  0  0  0  0  0  0  0  0  0  0
    1.2761    0.1877    0.0000 C   0  0  0  0  0  0  0  0  0  0  0  0
    2.2751   -0.4149    0.0000 C   0  0  0  0  0  0  0  0  0  0  0  0
   -1.8660   -0.3925    0.0000 C   0  0  0  0  0  0  0  0  0  0  0  0
   -1.8435    0.7740    0.0000 C   0  0  0  0  0  0  0  0  0  0  0  0
  1  2  2  0  0  0  0 
  2  3  1  0  0  0  0 
  2  4  1  0  0  0  0 
  3  5  1  0  0  0  0 
  4  6  1  0  0  0  0 
  5  7  1  0  0  0  0 
  5  8  1  0  0  0  0 
  6  9  1  0  0  0  0 
  6 10  1  0  0  0  0 
M  END
> <Name>
CARBONIC ACID, BIS(1-METHYLETHYL) ESTER

> <Source>
Smiles

> <Tox>
147

> <CAS>
6482-34-4

$$$$

  CDK

  6  5  0  0  0  0  0  0  0  0999 V2000
    0.0000    0.0000    0.0000 C   0  0  0  0  0  0  0  0  0  0  0  0
    0.0800   -1.7400   -0.4600 S   0  0  0  0  0  0  0  0  0  0  0  0
    1.7800   -1.8000   -1.0400 C   0  0  0  0  0  0  0  0  0  0  0  0
    1.8600   -1.6400   -2.5600 C   0  0  0  0  0  0  0  0  0  0  0  0
    1.2800    0.0000   -3.0600 S   0  0  0  0  0  0  0  0  0  0  0  0
   -0.3000   -0.4800   -3.8000 C   0  0  0  0  0  0  0  0  0  0  0  0
  1  2  1  0  0  0  0 
  2  3  1  0  0  0  0 
  3  4  1  0  0  0  0 
  4  5  1  0  0  0  0 
  5  6  1  0  0  0  0 
M  END
> <Name>
ETHANE, 1,2-BIS(METHYLTHIO)-

> <Source>
NIH3DMolFile

> <Tox>
183

> <CAS>
6628-18-8

$$$$

  CDK

  9  9  0  0  0  0  0  0  0  0999 V2000
    0.0000    1.4922    0.0000 C   0  0  0  0  0  0  0  0  0  0  0  0
    0.8953    1.9896    0.0000 C   0  0  0  0  0  0  0  0  0  0  0  0
    0.0000    0.4974    0.0000 C   0  0  0  0  0  0  0  0  0  0  0  0
    1.7409    1.4922    0.0000 C   0  0  0  0  0  0  0  0  0  0  0  0
    0.8953    2.9844    0.0000 Br  0  0  0  0  0  0  0  0  0  0  0  0
    0.8953    0.0000    0.0000 C   0  0  0  0  0  0  0  0  0  0  0  0
    1.7409    0.4974    0.0000 C   0  0  0  0  0  0  0  0  0  0  0  0
    2.5864    1.9896    0.0000 C   0  0  0  0  0  0  0  0  0  0  0  0
    3.4818    1.4922    0.0000 O   0  0  0  0  0  0  0  0  0  0  0  0
  1  2  2  0  0  0  0 
  3  1  1  0  0  0  0 
  2  4  1  0  0  0  0 
  2  5  1  0  0  0  0 
  6  3  2  0  0  0  0 
  4  7  2  0  0  0  0 
  4  8  1  0  0  0  0 
  7  6  1  0  0  0  0 
  8  9  2  0  0  0  0 
M  END
> <Name>
Benzaldehyde, 2-bromo-

> <Source>
NIST2DMolFile

> <Tox>
230

> <CAS>
6630-33-7

$$$$

  CDK

 10 10  0  0  0  0  0  0  0  0999 V2000
    0.0000    0.0000    0.0000 C   0  0  0  0  0  0  0  0  0  0  0  0
   -0.9200    1.1400   -0.2800 C   0  0  0  0  0  0  0  0  0  0  0  0
   -0.4400    2.4200   -0.6000 C   0  0  0  0  0  0  0  0  0  0  0  0
   -2.3000    0.9200   -0.1800 C   0  0  0  0  0  0  0  0  0  0  0  0
    1.2600    2.7400   -0.7000 Cl  0  0  0  0  0  0  0  0  0  0  0  0
   -1.3400    3.4800   -0.8400 C   0  0  0  0  0  0  0  0  0  0  0  0
   -3.2200    1.9800   -0.4400 C   0  0  0  0  0  0  0  0  0  0  0  0
   -2.7200    3.2600   -0.7600 C   0  0  0  0  0  0  0  0  0  0  0  0
   -4.9000    1.6400   -0.3200 Cl  0  0  0  0  0  0  0  0  0  0  0  0
   -3.7800    4.6000   -1.0600 Cl  0  0  0  0  0  0  0  0  0  0  0  0
  1  2  1  0  0  0  0 
  2  3  2  0  0  0  0 
  2  4  1  0  0  0  0 
  3  5  1  0  0  0  0 
  3  6  1  0  0  0  0 
  7  4  2  0  0  0  0 
  6  8  2  0  0  0  0 
  8  7  1  0  0  0  0 
  7  9  1  0  0  0  0 
  8 10  1  0  0  0  0 
M  END
> <Name>
2,4,5-TRICHLOROTOLUENE

> <Source>
NIH3DMolFile

> <Tox>
231

> <CAS>
6639-30-1

$$$$

  CDK

  7  6  0  0  0  0  0  0  0  0999 V2000
    2.5078    0.3610   -0.0299 C   0  0  0  0  0  0  0  0  0  0  0  0
    1.2066   -0.3418   -0.0200 C   0  0  0  0  0  0  0  0  0  0  0  0
    3.5445   -0.1868    0.2730 O   0  0  0  0  0  0  0  0  0  0  0  0
    0.0811    0.2873   -0.3683 C   0  0  0  0  0  0  0  0  0  0  0  0
   -1.2449   -0.3837   -0.3923 C   0  0  0  0  0  0  0  0  0  0  0  0
   -2.3127    0.4777    0.2672 C   0  0  0  0  0  0  0  0  0  0  0  0
   -3.6680   -0.1901    0.2113 C   0  0  0  0  0  0  0  0  0  0  0  0
  1  2  1  0  0  0  0 
  1  3  2  0  0  0  0 
  2  4  2  0  0  0  0 
  4  5  1  0  0  0  0 
  5  6  1  0  0  0  0 
  6  7  1  0  0  0  0 
M  END
> <Name>
(E)-2-HEXENAL

> <Source>
DougDB3DMolFile

> <Tox>
146.5

> <CAS>
6728-26-3

$$$$

  CDK

 17 16  0  0  0  0  0  0  0  0999 V2000
    6.0848    0.8798    5.6217 C   0  0  0  0  0  0  0  0  0  0  0  0
    4.9009    1.0058    6.5705 C   0  0  0  0  0  0  0  0  0  0  0  0
    6.8172    2.2019    5.4309 C   0  0  0  0  0  0  0  0  0  0  0  0
    3.8046    1.8719    5.9667 C   0  0  0  0  0  0  0  0  0  0  0  0
    7.8162    2.4746    6.5425 C   0  0  0  0  0  0  0  0  0  0  0  0
    3.1574    1.1903    4.7715 C   0  0  0  0  0  0  0  0  0  0  0  0
    8.9332    1.4409    6.5614 C   0  0  0  0  0  0  0  0  0  0  0  0
    2.2140    2.1252    4.0379 C   0  0  0  0  0  0  0  0  0  0  0  0
    9.9388    1.7224    7.6655 C   0  0  0  0  0  0  0  0  0  0  0  0
    1.5610    1.4420    2.8458 C   0  0  0  0  0  0  0  0  0  0  0  0
   10.6785    3.0283    7.4157 C   0  0  0  0  0  0  0  0  0  0  0  0
    0.7570    2.4269    2.0104 C   0  0  0  0  0  0  0  0  0  0  0  0
   11.5266    3.4323    8.6092 C   0  0  0  0  0  0  0  0  0  0  0  0
    1.6576    3.4671    1.3581 C   0  0  0  0  0  0  0  0  0  0  0  0
   12.2732    4.7208    8.3471 C   0  0  0  0  0  0  0  0  0  0  0  0
    0.8608    4.5206    0.6750 C   0  0  0  0  0  0  0  0  0  0  0  0
    1.0733    5.8194    0.8499 C   0  0  0  0  0  0  0  0  0  0  0  0
  1  2  1  0  0  0  0 
  1  3  1  0  0  0  0 
  2  4  1  0  0  0  0 
  3  5  1  0  0  0  0 
  4  6  1  0  0  0  0 
  5  7  1  0  0  0  0 
  6  8  1  0  0  0  0 
  7  9  1  0  0  0  0 
  8 10  1  0  0  0  0 
  9 11  1  0  0  0  0 
 10 12  1  0  0  0  0 
 11 13  1  0  0  0  0 
 12 14  1  0  0  0  0 
 13 15  1  0  0  0  0 
 14 16  1  0  0  0  0 
 16 17  2  0  0  0  0 
M  END
> <Name>
1-HEPTADECENE

> <Source>
NIST3DMolFile

> <Tox>
300

> <CAS>
6765-39-5

$$$$

  CDK

 22 22  0  0  0  0  0  0  0  0999 V2000
   -7.4863    0.1375   -0.2007 C   0  0  0  0  0  0  0  0  0  0  0  0
   -8.6393    1.1491   -0.1527 C   0  0  0  0  0  0  0  0  0  0  0  0
   -7.8390   -1.1306    0.5885 C   0  0  0  0  0  0  0  0  0  0  0  0
   -6.1977    0.7625    0.3304 C   0  0  0  0  0  0  0  0  0  0  0  0
   -9.9519    0.5311   -0.6291 C   0  0  0  0  0  0  0  0  0  0  0  0
   -9.1528   -1.7449    0.1107 C   0  0  0  0  0  0  0  0  0  0  0  0
   -4.9646    0.0178   -0.1813 C   0  0  0  0  0  0  0  0  0  0  0  0
  -10.2944   -0.7339    0.1517 C   0  0  0  0  0  0  0  0  0  0  0  0
   -3.6420    0.6591    0.2495 C   0  0  0  0  0  0  0  0  0  0  0  0
   -2.3706   -0.0117   -0.2795 C   0  0  0  0  0  0  0  0  0  0  0  0
   -1.0823    0.6190    0.2526 C   0  0  0  0  0  0  0  0  0  0  0  0
    0.1537   -0.0681   -0.3324 C   0  0  0  0  0  0  0  0  0  0  0  0
    1.4430    0.5393    0.2233 C   0  0  0  0  0  0  0  0  0  0  0  0
    2.6786   -0.1697   -0.3360 C   0  0  0  0  0  0  0  0  0  0  0  0
    3.9654    0.4192    0.2463 C   0  0  0  0  0  0  0  0  0  0  0  0
    5.2346   -0.2746   -0.2567 C   0  0  0  0  0  0  0  0  0  0  0  0
    6.5201    0.2981    0.3443 C   0  0  0  0  0  0  0  0  0  0  0  0
    7.7586   -0.3815   -0.2467 C   0  0  0  0  0  0  0  0  0  0  0  0
    9.0451    0.2170    0.3261 C   0  0  0  0  0  0  0  0  0  0  0  0
   10.3175   -0.4424   -0.2148 C   0  0  0  0  0  0  0  0  0  0  0  0
   11.6370    0.1309    0.3074 C   0  0  0  0  0  0  0  0  0  0  0  0
   12.8674   -0.5234   -0.3010 C   0  0  0  0  0  0  0  0  0  0  0  0
  1  2  1  0  0  0  0 
  1  3  1  0  0  0  0 
  1  4  1  0  0  0  0 
  2  5  1  0  0  0  0 
  3  6  1  0  0  0  0 
  4  7  1  0  0  0  0 
  5  8  1  0  0  0  0 
  6  8  1  0  0  0  0 
  7  9  1  0  0  0  0 
  9 10  1  0  0  0  0 
 10 11  1  0  0  0  0 
 11 12  1  0  0  0  0 
 12 13  1  0  0  0  0 
 13 14  1  0  0  0  0 
 14 15  1  0  0  0  0 
 15 16  1  0  0  0  0 
 16 17  1  0  0  0  0 
 17 18  1  0  0  0  0 
 18 19  1  0  0  0  0 
 19 20  1  0  0  0  0 
 20 21  1  0  0  0  0 
 21 22  1  0  0  0  0 
M  END
> <Name>
1-CYCLOHEXYLHEXADECANE

> <Source>
Chemidplus3DMolFile

> <Tox>
385

> <CAS>
6812-38-0

$$$$

  CDK

  8  8  0  0  0  0  0  0  0  0999 V2000
    2.9265    2.3323    0.9548 C   0  0  0  0  0  0  0  0  0  0  0  0
    1.6683    1.4848    0.8739 C   0  0  0  0  0  0  0  0  0  0  0  0
    3.8300    1.8844    2.1039 C   0  0  0  0  0  0  0  0  0  0  0  0
    0.9052    1.5309    2.1872 C   0  0  0  0  0  0  0  0  0  0  0  0
    3.0605    1.9079    3.4367 C   0  0  0  0  0  0  0  0  0  0  0  0
    5.0594    2.7768    2.1709 C   0  0  0  0  0  0  0  0  0  0  0  0
    1.7865    1.0691    3.3353 C   0  0  0  0  0  0  0  0  0  0  0  0
    3.9285    1.3913    4.5734 C   0  0  0  0  0  0  0  0  0  0  0  0
  2  1  1  0  0  0  0 
  1  3  1  0  0  0  0 
  2  4  1  0  0  0  0 
  5  3  1  0  0  0  0 
  3  6  1  0  0  0  0 
  7  4  1  0  0  0  0 
  5  7  1  0  0  0  0 
  5  8  1  0  0  0  0 
M  END
> <Name>
1,2-DIMETHYLCYCLOHEXANE (TRANS)

> <Source>
NIST3DMolFile

> <Tox>
123.5

> <CAS>
6876-23-9

$$$$

  CDK

 10 10  0  0  0  0  0  0  0  0999 V2000
    0.0000    0.0000    0.0000 O   0  0  0  0  0  0  0  0  0  0  0  0
   -0.8800   -1.1000    0.0000 C   0  0  0  0  0  0  0  0  0  0  0  0
   -0.1000   -2.3600    0.0000 C   0  0  0  0  0  0  0  0  0  0  0  0
   -0.7600   -3.6000    0.0000 C   0  0  0  0  0  0  0  0  0  0  0  0
    1.3000   -2.3200    0.0000 C   0  0  0  0  0  0  0  0  0  0  0  0
   -0.0200   -4.8000    0.0000 C   0  0  0  0  0  0  0  0  0  0  0  0
    2.0600   -3.5000    0.0000 C   0  0  0  0  0  0  0  0  0  0  0  0
    1.4000   -4.7400    0.0000 C   0  0  0  0  0  0  0  0  0  0  0  0
   -0.6400   -5.9600    0.0000 O   0  0  0  0  0  0  0  0  0  0  0  0
    0.1600   -7.1400   -0.0400 C   0  0  0  0  0  0  0  0  0  0  0  0
  1  2  1  0  0  0  0 
  2  3  1  0  0  0  0 
  3  4  2  0  0  0  0 
  3  5  1  0  0  0  0 
  4  6  1  0  0  0  0 
  7  5  2  0  0  0  0 
  6  8  2  0  0  0  0 
  6  9  1  0  0  0  0 
  8  7  1  0  0  0  0 
 10  9  1  0  0  0  0 
M  END
> <Name>
(3-Methoxy-phenyl)-methanol

> <Source>
NIH3DMolFile

> <Tox>
252

> <CAS>
6971-51-3

$$$$

  CDK

  8  7  0  0  0  0  0  0  0  0999 V2000
    3.2320    1.7426    3.2671 C   0  0  0  0  0  0  0  0  0  0  0  0
    2.0276    1.0542    3.8970 C   0  0  0  0  0  0  0  0  0  0  0  0
    3.6048    1.0983    1.9307 C   0  0  0  0  0  0  0  0  0  0  0  0
    1.5522    1.7899    5.1088 C   0  0  0  0  0  0  0  0  0  0  0  0
    2.4977    1.3071    0.9096 C   0  0  0  0  0  0  0  0  0  0  0  0
    4.9162    1.6674    1.4169 C   0  0  0  0  0  0  0  0  0  0  0  0
    2.2735    1.5050    6.3769 C   0  0  0  0  0  0  0  0  0  0  0  0
    0.5358    2.6503    5.0500 C   0  0  0  0  0  0  0  0  0  0  0  0
  1  2  1  0  0  0  0 
  1  3  1  0  0  0  0 
  2  4  1  0  0  0  0 
  3  5  1  0  0  0  0 
  3  6  1  0  0  0  0 
  4  7  1  0  0  0  0 
  4  8  2  0  0  0  0 
M  END
> <Name>
1-HEXENE, 2,5-DIMETHYL-

> <Source>
NIST3DMolFile

> <Tox>
111.6

> <CAS>
6975-92-4

$$$$

  CDK

 15 14  0  0  0  0  0  0  0  0999 V2000
    0.0000    0.0500    0.0000 C   0  0  0  0  0  0  0  0  0  0  0  0
    0.8991    0.5495    0.0000 C   0  0  0  0  0  0  0  0  0  0  0  0
    1.7483    0.0000    0.0000 C   0  0  0  0  0  0  0  0  0  0  0  0
    2.5975    0.4995    0.0000 C   0  0  0  0  0  0  0  0  0  0  0  0
    3.4967    0.0000    0.0000 C   0  0  0  0  0  0  0  0  0  0  0  0
    4.3459    0.4995    0.0000 C   0  0  0  0  0  0  0  0  0  0  0  0
    5.1951    0.0000    0.0000 O   0  0  0  0  0  0  0  0  0  0  0  0
    4.3459    1.4486    0.0000 O   0  0  0  0  0  0  0  0  0  0  0  0
    6.0443    0.4995    0.0000 C   0  0  0  0  0  0  0  0  0  0  0  0
    6.8934    0.0000    0.0000 C   0  0  0  0  0  0  0  0  0  0  0  0
    7.7426    0.4995    0.0000 C   0  0  0  0  0  0  0  0  0  0  0  0
    8.6418    0.0000    0.0000 C   0  0  0  0  0  0  0  0  0  0  0  0
    9.4910    0.4995    0.0000 C   0  0  0  0  0  0  0  0  0  0  0  0
   10.3901    0.0000    0.0000 C   0  0  0  0  0  0  0  0  0  0  0  0
   11.2893    0.4995    0.0000 C   0  0  0  0  0  0  0  0  0  0  0  0
  1  2  1  0  0  0  0 
  2  3  1  0  0  0  0 
  3  4  1  0  0  0  0 
  4  5  1  0  0  0  0 
  5  6  1  0  0  0  0 
  6  7  1  0  0  0  0 
  6  8  2  0  0  0  0 
  7  9  1  0  0  0  0 
  9 10  1  0  0  0  0 
 11 10  1  0  0  0  0 
 12 11  1  0  0  0  0 
 13 12  1  0  0  0  0 
 14 13  1  0  0  0  0 
 15 14  1  0  0  0  0 
M  END
> <Name>
Hexanoic acid heptyl ester

> <Source>
NIST2DMolFile

> <Tox>
261

> <CAS>
6976-72-3

$$$$

  CDK

  7  7  0  0  0  0  0  0  0  0999 V2000
    0.0000    1.8200    0.0000 C   0  0  0  0  0  0  0  0  0  0  0  0
    0.0000    0.4200    0.0000 C   0  0  0  0  0  0  0  0  0  0  0  0
    1.3067    2.2400    0.0000 N   0  0  0  0  0  0  0  0  0  0  0  0
    1.3067    0.0000    0.0000 N   0  0  0  0  0  0  0  0  0  0  0  0
    2.1467    1.1200    0.0000 C   0  0  0  0  0  0  0  0  0  0  0  0
    1.7733    3.5933    0.0000 C   0  0  0  0  0  0  0  0  0  0  0  0
    0.8400    4.6200    0.0000 C   0  0  0  0  0  0  0  0  0  0  0  0
  1  2  2  0  0  0  0 
  1  3  1  0  0  0  0 
  2  4  1  0  0  0  0 
  5  3  1  0  0  0  0 
  3  6  1  0  0  0  0 
  4  5  2  0  0  0  0 
  6  7  1  0  0  0  0 
M  END
> <Name>
1H-IMIDAZOLE, 1-ETHYL-

> <Source>
IndexNet2DMolFile

> <Tox>
208

> <CAS>
7098-07-9

$$$$

  CDK

  6  5  0  0  0  0  0  0  0  0999 V2000
    0.0000    1.0144    0.0000 C   0  0  0  0  0  0  0  0  0  0  0  0
    0.9129    1.5215    0.0000 C   0  0  0  0  0  0  0  0  0  0  0  0
    1.7244    1.0144    0.0000 C   0  0  0  0  0  0  0  0  0  0  0  0
    0.9129    2.4852    0.0000 Br  0  0  0  0  0  0  0  0  0  0  0  0
    2.6373    1.4708    0.0000 Cl  0  0  0  0  0  0  0  0  0  0  0  0
    1.7244    0.0000    0.0000 O   0  0  0  0  0  0  0  0  0  0  0  0
  1  2  1  0  0  0  0 
  2  3  1  0  0  0  0 
  2  4  1  0  0  0  0 
  3  5  1  0  0  0  0 
  3  6  2  0  0  0  0 
M  END
> <Name>
2-Bromo-propionyl chloride

> <Source>
NIST2DMolFile

> <Tox>
132

> <CAS>
7148-74-5

$$$$

  CDK

 11 10  0  0  0  0  0  0  0  0999 V2000
    2.5914    1.4950    0.0000 C   0  0  0  0  0  0  0  0  0  0  0  0
    3.4884    0.9967    0.0000 C   0  0  0  0  0  0  0  0  0  0  0  0
    1.7442    0.9967    0.0000 C   0  0  0  0  0  0  0  0  0  0  0  0
    4.3356    1.4950    0.0000 O   0  0  0  0  0  0  0  0  0  0  0  0
    3.4884    0.0000    0.0000 O   0  0  0  0  0  0  0  0  0  0  0  0
    0.8970    1.4950    0.0000 C   0  0  0  0  0  0  0  0  0  0  0  0
    1.7442    0.0000    0.0000 O   0  0  0  0  0  0  0  0  0  0  0  0
    5.1827    0.9967    0.0000 C   0  0  0  0  0  0  0  0  0  0  0  0
    0.8970    2.4917    0.0000 C   0  0  0  0  0  0  0  0  0  0  0  0
    0.0000    0.9967    0.0000 C   0  0  0  0  0  0  0  0  0  0  0  0
    6.0798    1.4950    0.0000 C   0  0  0  0  0  0  0  0  0  0  0  0
  1  2  1  0  0  0  0 
  1  3  1  0  0  0  0 
  2  4  1  0  0  0  0 
  2  5  2  0  0  0  0 
  3  6  1  0  0  0  0 
  3  7  2  0  0  0  0 
  4  8  1  0  0  0  0 
  6  9  1  0  0  0  0 
  6 10  1  0  0  0  0 
  8 11  1  0  0  0  0 
M  END
> <Name>
PENTANOIC ACID, 4-METHYL-3-OXO-, ETHYL ESTER

> <Source>
NIST2DMolFile

> <Tox>
173

> <CAS>
7152-15-0

$$$$

  CDK

 38 37  0  0  0  0  0  0  0  0999 V2000
   -9.1301   -7.6246    0.0000 C   0  0  0  0  0  0  0  0  0  0  0  0
   -7.9176   -6.9246    0.0000 C   0  0  0  0  0  0  0  0  0  0  0  0
   -6.7052   -7.6246    0.0000 C   0  0  0  0  0  0  0  0  0  0  0  0
   -5.4927   -6.9246    0.0000 C   0  0  0  0  0  0  0  0  0  0  0  0
   -4.2803   -7.6246    0.0000 C   0  0  0  0  0  0  0  0  0  0  0  0
   -3.0679   -6.9246    0.0000 C   0  0  0  0  0  0  0  0  0  0  0  0
   -1.8554   -7.6246    0.0000 C   0  0  0  0  0  0  0  0  0  0  0  0
   -0.6430   -6.9246    0.0000 C   0  0  0  0  0  0  0  0  0  0  0  0
    0.5694   -7.6246    0.0000 C   0  0  0  0  0  0  0  0  0  0  0  0
    1.7819   -6.9246    0.0000 C   0  0  0  0  0  0  0  0  0  0  0  0
    2.9943   -7.6246    0.0000 C   0  0  0  0  0  0  0  0  0  0  0  0
    4.2067   -6.9246    0.0000 C   0  0  0  0  0  0  0  0  0  0  0  0
    5.4192   -7.6246    0.0000 C   0  0  0  0  0  0  0  0  0  0  0  0
    6.6316   -6.9246    0.0000 C   0  0  0  0  0  0  0  0  0  0  0  0
    7.8440   -7.6246    0.0000 C   0  0  0  0  0  0  0  0  0  0  0  0
    9.0565   -6.9246    0.0000 C   0  0  0  0  0  0  0  0  0  0  0  0
   10.2689   -7.6246    0.0000 C   0  0  0  0  0  0  0  0  0  0  0  0
   11.4813   -6.9246    0.0000 C   0  0  0  0  0  0  0  0  0  0  0  0
   12.6938   -7.6246    0.0000 C   0  0  0  0  0  0  0  0  0  0  0  0
   13.9062   -6.9246    0.0000 C   0  0  0  0  0  0  0  0  0  0  0  0
   15.1187   -7.6246    0.0000 C   0  0  0  0  0  0  0  0  0  0  0  0
   16.3311   -6.9246    0.0000 C   0  0  0  0  0  0  0  0  0  0  0  0
   17.5435   -7.6246    0.0000 C   0  0  0  0  0  0  0  0  0  0  0  0
   18.7560   -6.9246    0.0000 C   0  0  0  0  0  0  0  0  0  0  0  0
   19.9684   -7.6246    0.0000 C   0  0  0  0  0  0  0  0  0  0  0  0
   21.1808   -6.9246    0.0000 C   0  0  0  0  0  0  0  0  0  0  0  0
   22.3933   -7.6246    0.0000 C   0  0  0  0  0  0  0  0  0  0  0  0
   23.6057   -6.9246    0.0000 C   0  0  0  0  0  0  0  0  0  0  0  0
   24.8181   -7.6246    0.0000 C   0  0  0  0  0  0  0  0  0  0  0  0
   26.0306   -6.9246    0.0000 C   0  0  0  0  0  0  0  0  0  0  0  0
   27.2430   -7.6246    0.0000 C   0  0  0  0  0  0  0  0  0  0  0  0
   28.4554   -6.9246    0.0000 C   0  0  0  0  0  0  0  0  0  0  0  0
   29.6679   -7.6246    0.0000 C   0  0  0  0  0  0  0  0  0  0  0  0
   30.8803   -6.9246    0.0000 C   0  0  0  0  0  0  0  0  0  0  0  0
   32.0928   -7.6246    0.0000 C   0  0  0  0  0  0  0  0  0  0  0  0
   33.3052   -6.9246    0.0000 C   0  0  0  0  0  0  0  0  0  0  0  0
   34.5176   -7.6246    0.0000 C   0  0  0  0  0  0  0  0  0  0  0  0
   35.7301   -6.9246    0.0000 C   0  0  0  0  0  0  0  0  0  0  0  0
  2  1  1  0  0  0  0 
  3  2  1  0  0  0  0 
  4  3  1  0  0  0  0 
  5  4  1  0  0  0  0 
  6  5  1  0  0  0  0 
  7  6  1  0  0  0  0 
  8  7  1  0  0  0  0 
  9  8  1  0  0  0  0 
 10  9  1  0  0  0  0 
 11 10  1  0  0  0  0 
 12 11  1  0  0  0  0 
 13 12  1  0  0  0  0 
 14 13  1  0  0  0  0 
 15 14  1  0  0  0  0 
 16 15  1  0  0  0  0 
 17 16  1  0  0  0  0 
 18 17  1  0  0  0  0 
 19 18  1  0  0  0  0 
 20 19  1  0  0  0  0 
 21 20  1  0  0  0  0 
 22 21  1  0  0  0  0 
 23 22  1  0  0  0  0 
 24 23  1  0  0  0  0 
 25 24  1  0  0  0  0 
 26 25  1  0  0  0  0 
 27 26  1  0  0  0  0 
 28 27  1  0  0  0  0 
 29 28  1  0  0  0  0 
 30 29  1  0  0  0  0 
 31 30  1  0  0  0  0 
 32 31  1  0  0  0  0 
 33 32  1  0  0  0  0 
 34 33  1  0  0  0  0 
 35 34  1  0  0  0  0 
 36 35  1  0  0  0  0 
 37 36  1  0  0  0  0 
 38 37  1  0  0  0  0 
M  END
> <Name>
N-OCTATRIACONTANE

> <Source>
IndexNet2DMolFile

> <Tox>
512

> <CAS>
7194-85-6

$$$$

  CDK

 11 12  0  0  0  0  0  0  0  0999 V2000
    3.4609    1.5047    0.0000 C   0  0  0  0  0  0  0  0  0  0  0  0
    4.3136    2.0063    0.0000 C   0  0  0  0  0  0  0  0  0  0  0  0
    2.6082    2.0063    0.0000 N   0  0  0  0  0  0  0  0  0  0  0  0
    3.4609    0.5016    0.0000 C   0  0  0  0  0  0  0  0  0  0  0  0
    1.7054    1.5047    0.0000 C   0  0  0  0  0  0  0  0  0  0  0  0
    2.6082    0.0000    0.0000 N   0  0  0  0  0  0  0  0  0  0  0  0
    1.7054    0.5016    0.0000 C   0  0  0  0  0  0  0  0  0  0  0  0
    0.8527    2.0063    0.0000 C   0  0  0  0  0  0  0  0  0  0  0  0
    0.8527    0.0000    0.0000 C   0  0  0  0  0  0  0  0  0  0  0  0
    0.0000    1.5047    0.0000 C   0  0  0  0  0  0  0  0  0  0  0  0
    0.0000    0.5016    0.0000 C   0  0  0  0  0  0  0  0  0  0  0  0
  1  2  1  0  0  0  0 
  3  1  2  0  0  0  0 
  1  4  1  0  0  0  0 
  5  3  1  0  0  0  0 
  4  6  2  0  0  0  0 
  5  7  2  0  0  0  0 
  8  5  1  0  0  0  0 
  6  7  1  0  0  0  0 
  7  9  1  0  0  0  0 
 10  8  2  0  0  0  0 
  9 11  2  0  0  0  0 
 11 10  1  0  0  0  0 
M  END
> <Name>
2-METHYLQUINOXALINE

> <Source>
NIST2DMolFile

> <Tox>
244

> <CAS>
7251-61-8

$$$$

  CDK

 10 10  0  0  0  0  0  0  0  0999 V2000
    1.6684    2.1292   -0.0003 Cl  0  0  0  0  0  0  0  0  0  0  0  0
    0.7330    0.6656   -0.0001 C   0  0  0  0  0  0  0  0  0  0  0  0
    1.4038   -0.5575    0.0000 C   0  0  0  0  0  0  0  0  0  0  0  0
   -0.6616    0.6961    0.0001 C   0  0  0  0  0  0  0  0  0  0  0  0
    0.6800   -1.7499    0.0002 C   0  0  0  0  0  0  0  0  0  0  0  0
    2.8968   -0.6449   -0.0003 C   0  0  0  0  0  0  0  0  0  0  0  0
   -1.5053    2.2175    0.0006 Cl  0  0  0  0  0  0  0  0  0  0  0  0
   -1.3852   -0.4965    0.0003 C   0  0  0  0  0  0  0  0  0  0  0  0
   -0.7145   -1.7194    0.0004 C   0  0  0  0  0  0  0  0  0  0  0  0
   -3.1155   -0.5402   -0.0009 Cl  0  0  0  0  0  0  0  0  0  0  0  0
  1  2  1  0  0  0  0 
  3  2  2  0  0  0  0 
  2  4  1  0  0  0  0 
  3  5  1  0  0  0  0 
  3  6  1  0  0  0  0 
  7  4  1  0  0  0  0 
  4  8  2  0  0  0  0 
  5  9  2  0  0  0  0 
 10  8  1  0  0  0  0 
  9  8  1  0  0  0  0 
M  END
> <Name>
2,3,4-TRICHLOROTOLUENE

> <Source>
Chemidplus3DMolFile

> <Tox>
244

> <CAS>
7359-72-0

$$$$

  CDK

 11 11  0  0  0  0  0  0  0  0999 V2000
    2.9918    1.7241    0.0000 C   0  0  0  0  0  0  0  0  0  0  0  0
    2.0283    1.7241    0.0000 C   0  0  0  0  0  0  0  0  0  0  0  0
    3.4988    2.5861    0.0000 C   0  0  0  0  0  0  0  0  0  0  0  0
    3.4988    0.8620    0.0000 N   0  0  0  0  0  0  0  0  0  0  0  0
    1.5212    2.5861    0.0000 C   0  0  0  0  0  0  0  0  0  0  0  0
    2.9918    3.4481    0.0000 C   0  0  0  0  0  0  0  0  0  0  0  0
    4.5130    0.8620    0.0000 O   0  0  0  0  0  0  0  0  0  0  0  0
    2.9918    0.0000    0.0000 O   0  0  0  0  0  0  0  0  0  0  0  0
    2.0283    3.4481    0.0000 C   0  0  0  0  0  0  0  0  0  0  0  0
    0.5071    2.5861    0.0000 C   0  0  0  0  0  0  0  0  0  0  0  0
    0.0000    1.6734    0.0000 C   0  0  0  0  0  0  0  0  0  0  0  0
  2  1  2  0  0  0  0 
  1  3  1  0  0  0  0 
  1  4  1  0  0  0  0 
  5  2  1  0  0  0  0 
  3  6  2  0  0  0  0 
  4  7  2  0  0  0  0 
  4  8  2  0  0  0  0 
  9  5  2  0  0  0  0 
  5 10  1  0  0  0  0 
  6  9  1  0  0  0  0 
 10 11  1  0  0  0  0 
M  END
> <Name>
1-Ethyl-3-nitrobenzene

> <Source>
NIST2DMolFile

> <Tox>
242.5

> <CAS>
7369-50-8

$$$$

  CDK

 10 11  0  0  0  0  0  0  0  0999 V2000
   -0.2058    0.0547    0.0000 C   0  0  0  0  0  0  0  0  0  0  0  0
   -0.9905    0.3096    0.0000 C   0  0  0  0  0  0  0  0  0  0  0  0
   -0.2058   -0.7703    0.0000 C   0  0  0  0  0  0  0  0  0  0  0  0
    0.5086    0.4672    0.0000 C   0  0  0  0  0  0  0  0  0  0  0  0
   -1.4754   -0.3578    0.0000 C   0  0  0  0  0  0  0  0  0  0  0  0
   -0.9905   -1.0253    0.0000 C   0  0  0  0  0  0  0  0  0  0  0  0
    0.5086   -1.1828    0.0000 C   0  0  0  0  0  0  0  0  0  0  0  0
    1.2231    0.0547    0.0000 C   0  0  0  0  0  0  0  0  0  0  0  0
    0.5086    1.2922    0.0000 C   0  0  0  0  0  0  0  0  0  0  0  0
    1.2231   -0.7703    0.0000 C   0  0  0  0  0  0  0  0  0  0  0  0
  1  2  1  0  0  0  0 
  1  3  1  0  0  0  0 
  1  4  2  0  0  0  0 
  2  5  1  0  0  0  0 
  6  3  1  0  0  0  0 
  3  7  2  0  0  0  0 
  8  4  1  0  0  0  0 
  4  9  1  0  0  0  0 
  5  6  2  0  0  0  0 
  7 10  1  0  0  0  0 
 10  8  2  0  0  0  0 
M  END
> <Name>
7-Methyl-1H-indene

> <Source>
Smiles

> <Tox>
209

> <CAS>
7372-92-1

$$$$

  CDK

  8  7  0  0  0  0  0  0  0  0999 V2000
    2.6574    0.5308   -0.7795 C   0  0  0  0  0  0  0  0  0  0  0  0
    1.5471   -0.4189   -0.3686 C   0  0  0  0  0  0  0  0  0  0  0  0
    0.2814    0.3279    0.0550 C   0  0  0  0  0  0  0  0  0  0  0  0
    1.9976   -1.3182    0.7710 C   0  0  0  0  0  0  0  0  0  0  0  0
   -1.0092   -0.3418   -0.3664 C   0  0  0  0  0  0  0  0  0  0  0  0
    0.3180    1.3656    0.6853 O   0  0  0  0  0  0  0  0  0  0  0  0
   -2.2632    0.2895    0.2118 C   0  0  0  0  0  0  0  0  0  0  0  0
   -3.5048   -0.4368   -0.2552 C   0  0  0  0  0  0  0  0  0  0  0  0
  1  2  1  0  0  0  0 
  2  3  1  0  0  0  0 
  2  4  1  0  0  0  0 
  3  5  1  0  0  0  0 
  3  6  2  0  0  0  0 
  5  7  1  0  0  0  0 
  7  8  1  0  0  0  0 
M  END
> <Name>
2-Methyl-3-hexanone

> <Source>
DougDB3DMolFile

> <Tox>
135

> <CAS>
7379-12-6

$$$$

  CDK

  7  6  0  0  0  0  0  0  0  0999 V2000
    2.0352    2.0861    2.8463 C   0  0  0  0  0  0  0  0  0  0  0  0
    2.2370    3.4125    2.0820 C   0  0  0  0  0  0  0  0  0  0  0  0
    0.5530    1.8268    3.0684 C   0  0  0  0  0  0  0  0  0  0  0  0
    2.6811    0.9082    2.1365 C   0  0  0  0  0  0  0  0  0  0  0  0
    3.6841    3.7930    2.0824 C   0  0  0  0  0  0  0  0  0  0  0  0
    1.6124    3.3623    0.6967 C   0  0  0  0  0  0  0  0  0  0  0  0
    4.3404    4.3389    1.0658 C   0  0  0  0  0  0  0  0  0  0  0  0
  1  2  1  0  0  0  0 
  1  3  1  0  0  0  0 
  1  4  1  0  0  0  0 
  2  5  1  0  0  0  0 
  2  6  1  0  0  0  0 
  5  7  2  0  0  0  0 
M  END
> <Name>
1-PENTENE, 3,4-DIMETHYL-

> <Source>
NIST3DMolFile

> <Tox>
80.8

> <CAS>
7385-78-6

$$$$

  CDK

 10 10  0  0  0  0  0  0  0  0999 V2000
    3.1022    2.7808    2.0677 C   0  0  0  0  0  0  0  0  0  0  0  0
    3.2469    4.1546    2.2719 C   0  0  0  0  0  0  0  0  0  0  0  0
    4.2348    1.9796    1.8696 C   0  0  0  0  0  0  0  0  0  0  0  0
    1.7429    2.2091    2.0607 C   0  0  0  0  0  0  0  0  0  0  0  0
    4.5104    4.7317    2.2863 C   0  0  0  0  0  0  0  0  0  0  0  0
    5.4994    2.5736    1.8839 C   0  0  0  0  0  0  0  0  0  0  0  0
    4.1146    0.5139    1.6547 C   0  0  0  0  0  0  0  0  0  0  0  0
    1.2005    1.6931    3.1636 C   0  0  0  0  0  0  0  0  0  0  0  0
    1.0247    2.2676    0.7601 C   0  0  0  0  0  0  0  0  0  0  0  0
    5.6370    3.9399    2.0923 C   0  0  0  0  0  0  0  0  0  0  0  0
  1  2  2  0  0  0  0 
  3  1  1  0  0  0  0 
  1  4  1  0  0  0  0 
  2  5  1  0  0  0  0 
  6  3  2  0  0  0  0 
  3  7  1  0  0  0  0 
  4  8  2  0  0  0  0 
  4  9  1  0  0  0  0 
  5 10  2  0  0  0  0 
 10  6  1  0  0  0  0 
M  END
> <Name>
1-METHYL-2-ETHENYL BENZENE

> <Source>
NIST3DMolFile

> <Tox>
175

> <CAS>
7399-49-7

$$$$

  CDK

  6  5  0  0  0  0  0  0  0  0999 V2000
   -1.2258    0.3310   -0.6455 C   0  0  0  0  0  0  0  0  0  0  0  0
   -0.0063   -0.4052   -0.1422 C   0  0  0  0  0  0  0  0  0  0  0  0
   -2.0180    0.9743    0.4837 C   0  0  0  0  0  0  0  0  0  0  0  0
   -0.2083   -1.8520    0.2132 C   0  0  0  0  0  0  0  0  0  0  0  0
    1.1534    0.1829   -0.0167 C   0  0  0  0  0  0  0  0  0  0  0  0
    2.3051    0.7690    0.1074 C   0  0  0  0  0  0  0  0  0  0  0  0
  1  2  1  0  0  0  0 
  1  3  1  0  0  0  0 
  2  4  1  0  0  0  0 
  2  5  2  0  0  0  0 
  5  6  2  0  0  0  0 
M  END
> <Name>
3-METHYL-1,2-PENTADIENE

> <Source>
Chemidplus3DMolFile

> <Tox>
70

> <CAS>
7417-48-3

$$$$

  CDK

 14 13  0  0  0  0  0  0  0  0999 V2000
    6.0558    0.1501    0.0000 O   0  0  0  0  0  0  0  0  0  0  0  0
    5.2050    0.6506    0.0000 C   0  0  0  0  0  0  0  0  0  0  0  0
    6.9066    0.6006    0.0000 C   0  0  0  0  0  0  0  0  0  0  0  0
    5.2050    1.6015    0.0000 O   0  0  0  0  0  0  0  0  0  0  0  0
    4.3542    0.1501    0.0000 C   0  0  0  0  0  0  0  0  0  0  0  0
    7.7575    0.0500    0.0000 C   0  0  0  0  0  0  0  0  0  0  0  0
    3.4533    0.6006    0.0000 C   0  0  0  0  0  0  0  0  0  0  0  0
    8.6583    0.5505    0.0000 C   0  0  0  0  0  0  0  0  0  0  0  0
    2.6025    0.1001    0.0000 C   0  0  0  0  0  0  0  0  0  0  0  0
    9.5091    0.0000    0.0000 C   0  0  0  0  0  0  0  0  0  0  0  0
    1.7517    0.6006    0.0000 C   0  0  0  0  0  0  0  0  0  0  0  0
   10.4100    0.5005    0.0000 C   0  0  0  0  0  0  0  0  0  0  0  0
    0.8508    0.0500    0.0000 C   0  0  0  0  0  0  0  0  0  0  0  0
    0.0000    0.5505    0.0000 C   0  0  0  0  0  0  0  0  0  0  0  0
  1  2  1  0  0  0  0 
  1  3  1  0  0  0  0 
  2  4  2  0  0  0  0 
  2  5  1  0  0  0  0 
  3  6  1  0  0  0  0 
  5  7  1  0  0  0  0 
  8  6  1  0  0  0  0 
  9  7  1  0  0  0  0 
 10  8  1  0  0  0  0 
 11  9  1  0  0  0  0 
 12 10  1  0  0  0  0 
 13 11  1  0  0  0  0 
 13 14  1  0  0  0  0 
M  END
> <Name>
Heptanoic acid, pentyl ester

> <Source>
NIST2DMolFile

> <Tox>
245.4

> <CAS>
7493-82-5

$$$$

  CDK

 13 14  0  0  0  0  0  0  0  0999 V2000
    0.8423    2.0314    0.0000 C   0  0  0  0  0  0  0  0  0  0  0  0
    0.0000    1.4864    0.0000 C   0  0  0  0  0  0  0  0  0  0  0  0
    1.7341    1.4864    0.0000 C   0  0  0  0  0  0  0  0  0  0  0  0
    0.0000    0.4955    0.0000 C   0  0  0  0  0  0  0  0  0  0  0  0
    1.7341    0.4955    0.0000 C   0  0  0  0  0  0  0  0  0  0  0  0
    2.5764    2.0314    0.0000 C   0  0  0  0  0  0  0  0  0  0  0  0
    0.8423    0.0000    0.0000 C   0  0  0  0  0  0  0  0  0  0  0  0
    2.5764    0.0000    0.0000 C   0  0  0  0  0  0  0  0  0  0  0  0
    3.4187    1.4864    0.0000 C   0  0  0  0  0  0  0  0  0  0  0  0
    3.4187    0.4955    0.0000 C   0  0  0  0  0  0  0  0  0  0  0  0
    4.2610    2.0314    0.0000 C   0  0  0  0  0  0  0  0  0  0  0  0
    5.1528    1.5359    0.0000 C   0  0  0  0  0  0  0  0  0  0  0  0
    6.0446    1.0900    0.0000 N   0  0  0  0  0  0  0  0  0  0  0  0
  2  1  2  0  0  0  0 
  1  3  1  0  0  0  0 
  4  2  1  0  0  0  0 
  5  3  2  0  0  0  0 
  3  6  1  0  0  0  0 
  7  4  2  0  0  0  0 
  5  7  1  0  0  0  0 
  8  5  1  0  0  0  0 
  6  9  2  0  0  0  0 
 10  8  2  0  0  0  0 
  9 10  1  0  0  0  0 
  9 11  1  0  0  0  0 
 11 12  1  0  0  0  0 
 12 13  3  0  0  0  0 
M  END
> <Name>
Naphthalen-2-yl-acetonitrile

> <Source>
NIST2DMolFile

> <Tox>
303

> <CAS>
7498-57-9

$$$$

  CDK

  6  5  0  0  0  0  0  0  0  0999 V2000
    3.3250   -1.1509    0.0000 C   0  0  0  0  0  0  0  0  0  0  0  0
    1.9943   -1.1509    0.0000 C   0  0  0  0  0  0  0  0  0  0  0  0
    1.3307   -0.0000    0.0000 Cl  0  0  0  0  0  0  0  0  0  0  0  0
    1.3307   -2.3053    0.0000 C   0  0  0  0  0  0  0  0  0  0  0  0
    1.9943   -3.4563    0.0000 Cl  0  0  0  0  0  0  0  0  0  0  0  0
    0.0000   -2.3053    0.0000 C   0  0  0  0  0  0  0  0  0  0  0  0
  1  2  1  0  0  0  0 
  2  3  1  0  0  0  0 
  2  4  1  0  0  0  0 
  4  5  1  0  0  0  0 
  4  6  1  0  0  0  0 
M  END
> <Name>
2,3-DICHLOROBUTANE

> <Source>
DSSTox2DMolFile

> <Tox>
118

> <CAS>
7581-97-7

$$$$

  CDK

  6  5  0  0  0  0  0  0  0  0999 V2000
    3.1274    3.8894    2.1231 C   0  0  0  0  0  0  0  0  0  0  0  0
    2.0272    3.2271    1.7610 C   0  0  0  0  0  0  0  0  0  0  0  0
    4.5157    3.4094    1.8905 C   0  0  0  0  0  0  0  0  0  0  0  0
    2.0248    1.9095    1.0712 C   0  0  0  0  0  0  0  0  0  0  0  0
    5.3794    3.5895    3.1194 C   0  0  0  0  0  0  0  0  0  0  0  0
    1.0187    0.9620    1.6867 C   0  0  0  0  0  0  0  0  0  0  0  0
  1  2  2  0  0  0  0 
  1  3  1  0  0  0  0 
  2  4  1  0  0  0  0 
  3  5  1  0  0  0  0 
  4  6  1  0  0  0  0 
M  END
> <Name>
3-HEXENE, (Z)-

> <Source>
NIST3DMolFile

> <Tox>
66.4

> <CAS>
7642-09-3

$$$$

  CDK

  7  6  0  0  0  0  0  0  0  0999 V2000
    1.4751    2.3961    1.9321 C   0  0  0  0  0  0  0  0  0  0  0  0
    2.6865    1.6186    2.4251 C   0  0  0  0  0  0  0  0  0  0  0  0
    0.8750    3.2383    3.0353 C   0  0  0  0  0  0  0  0  0  0  0  0
    3.2410    0.7472    1.3552 C   0  0  0  0  0  0  0  0  0  0  0  0
    4.5325    0.6759    1.0282 C   0  0  0  0  0  0  0  0  0  0  0  0
    5.6144    1.4593    1.6822 C   0  0  0  0  0  0  0  0  0  0  0  0
    6.5289    2.1012    0.6623 C   0  0  0  0  0  0  0  0  0  0  0  0
  1  2  1  0  0  0  0 
  1  3  1  0  0  0  0 
  2  4  1  0  0  0  0 
  4  5  2  0  0  0  0 
  5  6  1  0  0  0  0 
  6  7  1  0  0  0  0 
M  END
> <Name>
3-HEPTENE (CIS)

> <Source>
NIST3DMolFile

> <Tox>
95.8

> <CAS>
7642-10-6

$$$$

  CDK

  8  8  0  0  0  0  0  0  0  0999 V2000
    0.0000    0.8559    0.0000 C   0  0  0  0  0  0  0  0  0  0  0  0
    1.0069    0.8559    0.0000 C   0  0  0  0  0  0  0  0  0  0  0  0
    1.5104    1.7118    0.0000 C   0  0  0  0  0  0  0  0  0  0  0  0
    1.5104    0.0000    0.0000 C   0  0  0  0  0  0  0  0  0  0  0  0
    2.5174    1.7118    0.0000 C   0  0  0  0  0  0  0  0  0  0  0  0
    2.5174    0.0000    0.0000 C   0  0  0  0  0  0  0  0  0  0  0  0
    3.0210    0.8559    0.0000 C   0  0  0  0  0  0  0  0  0  0  0  0
    4.0279    0.8559    0.0000 O   0  0  0  0  0  0  0  0  0  0  0  0
  2  1  1  1  0  0  0 
  2  3  1  0  0  0  0 
  4  2  1  0  0  0  0 
  3  5  1  0  0  0  0 
  6  4  1  0  0  0  0 
  5  7  1  0  0  0  0 
  7  6  1  0  0  0  0 
  7  8  1  1  0  0  0 
M  END
> <Name>
4-METHYLCYCLOHEXANOL (CIS)

> <Source>
NIST2DMolFile

> <Tox>
173

> <CAS>
7731-28-4

$$$$

  CDK

  9  9  0  0  0  0  0  0  0  0999 V2000
    2.3239    0.5834    0.0000 C   0  0  0  0  0  0  0  0  0  0  0  0
    0.9748    0.9849    0.0003 C   0  0  0  0  0  0  0  0  0  0  0  0
    2.6432   -0.7882    0.0000 C   0  0  0  0  0  0  0  0  0  0  0  0
    3.3403    1.5438   -0.0003 N   0  0  0  0  0  0  0  0  0  0  0  0
    0.0199   -0.0051    0.0003 C   0  0  0  0  0  0  0  0  0  0  0  0
    1.6376   -1.7446    0.0002 C   0  0  0  0  0  0  0  0  0  0  0  0
    0.2928   -1.3631    0.0002 C   0  0  0  0  0  0  0  0  0  0  0  0
   -1.7792    0.5071    0.0000 Br  0  0  0  0  0  0  0  0  0  0  0  0
   -0.8161   -2.3451   -0.0003 C   0  0  0  0  0  0  0  0  0  0  0  0
  1  2  1  0  0  0  0 
  1  3  2  0  0  0  0 
  1  4  1  0  0  0  0 
  2  5  2  0  0  0  0 
  6  3  1  0  0  0  0 
  5  7  1  0  0  0  0 
  5  8  1  0  0  0  0 
  7  6  2  0  0  0  0 
  7  9  1  0  0  0  0 
M  END
> <Name>
3-Bromo-4-methylaniline

> <Source>
DougDB3DMolFile

> <Tox>
255.5

> <CAS>
7745-91-7

$$$$

  CDK

  7  6  0  0  0  0  0  0  0  0999 V2000
    0.0000    0.0000    0.0000 C   0  0  0  0  0  0  0  0  0  0  0  0
    0.8598    0.5058    0.0000 C   0  0  0  0  0  0  0  0  0  0  0  0
    1.7197    0.0000    0.0000 C   0  0  0  0  0  0  0  0  0  0  0  0
    0.8598    1.5173    0.0000 O   0  0  0  0  0  0  0  0  0  0  0  0
    2.6301    0.5058    0.0000 O   0  0  0  0  0  0  0  0  0  0  0  0
    1.7197    2.0231    0.0000 C   0  0  0  0  0  0  0  0  0  0  0  0
    3.4393    0.0000    0.0000 C   0  0  0  0  0  0  0  0  0  0  0  0
  1  2  1  0  0  0  0 
  2  3  1  0  0  0  0 
  2  4  1  0  0  0  0 
  3  5  1  0  0  0  0 
  4  6  1  0  0  0  0 
  5  7  1  0  0  0  0 
M  END
> <Name>
1,2-DIMETHOXYPROPANE

> <Source>
NIST2DMolFile

> <Tox>
96

> <CAS>
7778-85-0

$$$$

  CDK

 10  9  0  0  0  0  0  0  0  0999 V2000
    3.2845    2.6689    2.2143 O   0  0  0  0  0  0  0  0  0  0  0  0
    4.5200    3.1987    1.7295 C   0  0  0  0  0  0  0  0  0  0  0  0
    2.1278    3.0619    1.6074 C   0  0  0  0  0  0  0  0  0  0  0  0
    5.6364    2.5606    2.5687 C   0  0  0  0  0  0  0  0  0  0  0  0
    2.1726    3.8399    0.6742 O   0  0  0  0  0  0  0  0  0  0  0  0
    0.9079    2.4369    2.2226 C   0  0  0  0  0  0  0  0  0  0  0  0
    6.8745    3.4613    2.5461 C   0  0  0  0  0  0  0  0  0  0  0  0
    5.9711    1.1435    2.0918 C   0  0  0  0  0  0  0  0  0  0  0  0
    7.9374    2.9607    3.4997 C   0  0  0  0  0  0  0  0  0  0  0  0
    6.3174    1.0451    0.6221 C   0  0  0  0  0  0  0  0  0  0  0  0
  1  2  1  0  0  0  0 
  1  3  1  0  0  0  0 
  2  4  1  0  0  0  0 
  3  5  2  0  0  0  0 
  3  6  1  0  0  0  0 
  4  7  1  0  0  0  0 
  4  8  1  0  0  0  0 
  7  9  1  0  0  0  0 
  8 10  1  0  0  0  0 
M  END
> <Name>
1-Butanol, 2-ethyl-, acetate

> <Source>
NIST3DMolFile

> <Tox>
162.5

> <CAS>
10031-87-5

$$$$

  CDK

 10 10  0  0  0  0  0  0  0  0999 V2000
    2.7984    1.2127    0.0000 C   0  0  0  0  0  0  0  0  0  0  0  0
    2.0988    0.0000    0.0000 C   0  0  0  0  0  0  0  0  0  0  0  0
    2.0988    2.4253    0.0000 C   0  0  0  0  0  0  0  0  0  0  0  0
    4.1977    1.2127    0.0000 C   0  0  0  0  0  0  0  0  0  0  0  0
    0.6996    0.0000    0.0000 C   0  0  0  0  0  0  0  0  0  0  0  0
    0.6996    2.4253    0.0000 C   0  0  0  0  0  0  0  0  0  0  0  0
    2.7984    3.6380    0.0000 C   0  0  0  0  0  0  0  0  0  0  0  0
    4.8973    0.0000    0.0000 C   0  0  0  0  0  0  0  0  0  0  0  0
    0.0000    1.2127    0.0000 C   0  0  0  0  0  0  0  0  0  0  0  0
    6.2965    0.0000    0.0000 O   0  0  0  0  0  0  0  0  0  0  0  0
  1  2  2  0  0  0  0 
  1  3  1  0  0  0  0 
  1  4  1  0  0  0  0 
  2  5  1  0  0  0  0 
  6  3  2  0  0  0  0 
  3  7  1  0  0  0  0 
  8  4  1  0  0  0  0 
  5  9  2  0  0  0  0 
  9  6  1  0  0  0  0 
  8 10  2  0  0  0  0 
M  END
> <Name>
Benzeneacetaldehyde, 2-methyl-

> <Source>
IndexNet2DMolFile

> <Tox>
221

> <CAS>
10166-08-2

$$$$

  CDK

 13 14  0  0  0  0  0  0  0  0999 V2000
    0.0000    0.0000    0.0000 C   0  0  0  0  0  0  0  0  0  0  0  0
    0.5600    0.3000   -1.3400 C   0  0  0  0  0  0  0  0  0  0  0  0
    0.0600   -1.3000    0.5400 C   0  0  0  0  0  0  0  0  0  0  0  0
   -0.6200    1.0200    0.7400 C   0  0  0  0  0  0  0  0  0  0  0  0
    1.0400    1.6600   -1.4200 N   0  0  0  0  0  0  0  0  0  0  0  0
   -0.4800   -1.5800    1.8000 C   0  0  0  0  0  0  0  0  0  0  0  0
   -1.1800    0.7400    2.0200 C   0  0  0  0  0  0  0  0  0  0  0  0
    1.2200    2.1000   -2.8200 C   0  0  0  0  0  0  0  0  0  0  0  0
    2.2600    1.9000   -0.6400 C   0  0  0  0  0  0  0  0  0  0  0  0
   -1.1000   -0.5600    2.5400 C   0  0  0  0  0  0  0  0  0  0  0  0
    2.4600    1.4600   -3.4600 C   0  0  0  0  0  0  0  0  0  0  0  0
    3.4800    1.2400   -1.3200 C   0  0  0  0  0  0  0  0  0  0  0  0
    3.6000    1.7200   -2.6600 O   0  0  0  0  0  0  0  0  0  0  0  0
  1  2  1  0  0  0  0 
  1  3  2  0  0  0  0 
  1  4  1  0  0  0  0 
  2  5  1  0  0  0  0 
  3  6  1  0  0  0  0 
  7  4  2  0  0  0  0 
  5  8  1  0  0  0  0 
  5  9  1  0  0  0  0 
  6 10  2  0  0  0  0 
 10  7  1  0  0  0  0 
  8 11  1  0  0  0  0 
 12  9  1  0  0  0  0 
 11 13  1  0  0  0  0 
 13 12  1  0  0  0  0 
M  END
> <Name>
4-BENZYLMORPHOLINE

> <Source>
NIH3DMolFile

> <Tox>
260.5

> <CAS>
10316-00-4

$$$$

  CDK

  8  7  0  0  0  0  0  0  0  0999 V2000
    1.4396    1.3566    0.0000 O   0  0  0  0  0  0  0  0  0  0  0  0
    1.4396    0.5316    0.0000 C   0  0  0  0  0  0  0  0  0  0  0  0
    2.1540    0.1191    0.0000 O   0  0  0  0  0  0  0  0  0  0  0  0
    0.7251    0.1191    0.0000 C   0  0  0  0  0  0  0  0  0  0  0  0
    0.0106    0.5316    0.0000 C   0  0  0  0  0  0  0  0  0  0  0  0
   -0.7038    0.1191    0.0000 C   0  0  0  0  0  0  0  0  0  0  0  0
   -0.2913   -0.5954    0.0000 C   0  0  0  0  0  0  0  0  0  0  0  0
   -1.4183   -0.2934    0.0000 C   0  0  0  0  0  0  0  0  0  0  0  0
  1  2  2  0  0  0  0 
  2  3  1  0  0  0  0 
  2  4  1  0  0  0  0 
  4  5  2  0  0  0  0 
  5  6  1  0  0  0  0 
  6  7  1  0  0  0  0 
  6  8  1  0  0  0  0 
M  END
> <Name>
2-Pentenoic acid, 4-methyl-

> <Source>
Smiles

> <Tox>
217

> <CAS>
10321-71-8

$$$$

  CDK

 11 11  0  0  0  0  0  0  0  0999 V2000
    4.4512    2.6007    0.0000 C   0  0  0  0  0  0  0  0  0  0  0  0
    5.4514    2.6007    0.0000 C   0  0  0  0  0  0  0  0  0  0  0  0
    3.9510    1.7505    0.0000 N   0  0  0  0  0  0  0  0  0  0  0  0
    5.9515    1.7505    0.0000 C   0  0  0  0  0  0  0  0  0  0  0  0
    4.4512    0.8502    0.0000 C   0  0  0  0  0  0  0  0  0  0  0  0
    2.9508    1.7505    0.0000 C   0  0  0  0  0  0  0  0  0  0  0  0
    5.4514    0.8502    0.0000 C   0  0  0  0  0  0  0  0  0  0  0  0
    2.4506    0.8502    0.0000 C   0  0  0  0  0  0  0  0  0  0  0  0
    1.5004    0.8502    0.0000 C   0  0  0  0  0  0  0  0  0  0  0  0
    1.0003    0.0000    0.0000 C   0  0  0  0  0  0  0  0  0  0  0  0
    0.0000    0.0000    0.0000 C   0  0  0  0  0  0  0  0  0  0  0  0
  2  1  1  0  0  0  0 
  1  3  1  0  0  0  0 
  4  2  1  0  0  0  0 
  3  5  1  0  0  0  0 
  3  6  1  0  0  0  0 
  7  4  1  0  0  0  0 
  5  7  1  0  0  0  0 
  6  8  1  0  0  0  0 
  8  9  1  0  0  0  0 
  9 10  1  0  0  0  0 
 10 11  1  0  0  0  0 
M  END
> <Name>
PIPERIDINE, 1-PENTYL-

> <Source>
NIST2DMolFile

> <Tox>
198.2

> <CAS>
10324-58-0

$$$$

  CDK

  8  7  0  0  0  0  0  0  0  0999 V2000
    0.0141    0.3683   -0.0001 C   0  0  0  0  0  0  0  0  0  0  0  0
    1.2503   -0.4422   -0.0002 C   0  0  0  0  0  0  0  0  0  0  0  0
   -0.0936    1.5818   -0.0002 O   0  0  0  0  0  0  0  0  0  0  0  0
   -1.1120   -0.4037    0.0000 O   0  0  0  0  0  0  0  0  0  0  0  0
    2.4585    0.1303    0.0005 C   0  0  0  0  0  0  0  0  0  0  0  0
   -2.3827    0.2488    0.0001 C   0  0  0  0  0  0  0  0  0  0  0  0
    3.7129   -0.6514   -0.0001 C   0  0  0  0  0  0  0  0  0  0  0  0
   -3.4298   -0.8484    0.0001 C   0  0  0  0  0  0  0  0  0  0  0  0
  1  2  1  0  0  0  0 
  1  3  2  0  0  0  0 
  1  4  1  0  0  0  0 
  2  5  2  0  0  0  0 
  4  6  1  0  0  0  0 
  5  7  1  0  0  0  0 
  6  8  1  0  0  0  0 
M  END
> <Name>
2-Butenoic acid, ethyl ester

> <Source>
DougDB3DMolFile

> <Tox>
136.5

> <CAS>
10544-63-5

$$$$

  CDK

  7  6  0  0  0  0  0  0  0  0999 V2000
    3.5926    1.4090    1.4590 C   0  0  0  0  0  0  0  0  0  0  0  0
    4.0651    1.0752    2.8701 C   0  0  0  0  0  0  0  0  0  0  0  0
    3.2665    2.8597    1.2907 C   0  0  0  0  0  0  0  0  0  0  0  0
    5.5297    1.3821    3.0875 C   0  0  0  0  0  0  0  0  0  0  0  0
    4.4090    3.7605    0.9823 C   0  0  0  0  0  0  0  0  0  0  0  0
    2.0180    3.3377    1.3906 C   0  0  0  0  0  0  0  0  0  0  0  0
    0.8249    2.5099    1.6689 C   0  0  0  0  0  0  0  0  0  0  0  0
  1  2  1  0  0  0  0 
  1  3  1  0  0  0  0 
  2  4  1  0  0  0  0 
  3  5  1  0  0  0  0 
  3  6  2  0  0  0  0 
  6  7  1  0  0  0  0 
M  END
> <Name>
2-HEXENE, 3-METHYL-, (Z)-

> <Source>
NIST3DMolFile

> <Tox>
95.6

> <CAS>
10574-36-4

$$$$

  CDK

 12 12  0  0  0  0  0  0  0  0999 V2000
    5.3220   -2.3018    0.0000 C   0  0  0  0  0  0  0  0  0  0  0  0
    6.6525   -2.3018    0.0000 Cl  0  0  0  0  0  0  0  0  0  0  0  0
    5.3220   -3.6322    0.0000 Cl  0  0  0  0  0  0  0  0  0  0  0  0
    5.3220   -0.9713    0.0000 Cl  0  0  0  0  0  0  0  0  0  0  0  0
    3.9915   -2.3018    0.0000 C   0  0  0  0  0  0  0  0  0  0  0  0
    3.3262   -3.4526    0.0000 C   0  0  0  0  0  0  0  0  0  0  0  0
    3.3262   -1.1509    0.0000 C   0  0  0  0  0  0  0  0  0  0  0  0
    1.9957   -3.4526    0.0000 C   0  0  0  0  0  0  0  0  0  0  0  0
    1.9957   -1.1509    0.0000 C   0  0  0  0  0  0  0  0  0  0  0  0
    1.3305   -2.3018    0.0000 C   0  0  0  0  0  0  0  0  0  0  0  0
    1.3305   -0.0000    0.0000 Cl  0  0  0  0  0  0  0  0  0  0  0  0
    0.0000   -2.3018    0.0000 Cl  0  0  0  0  0  0  0  0  0  0  0  0
  1  2  1  0  0  0  0 
  1  3  1  0  0  0  0 
  1  4  1  0  0  0  0 
  1  5  1  0  0  0  0 
  5  6  2  0  0  0  0 
  5  7  1  0  0  0  0 
  6  8  1  0  0  0  0 
  9  7  2  0  0  0  0 
  8 10  2  0  0  0  0 
 10  9  1  0  0  0  0 
  9 11  1  0  0  0  0 
 10 12  1  0  0  0  0 
M  END
> <Name>
Benzene, 1,2-dichloro-4-(trichloromethyl)-

> <Source>
DSSTox2DMolFile

> <Tox>
283.1

> <CAS>
13014-24-9

$$$$

  CDK

  9  8  0  0  0  0  0  0  0  0999 V2000
    5.7298    2.1034    2.0726 C   0  0  0  0  0  0  0  0  0  0  0  0
    4.8070    2.5850    3.1942 C   0  0  0  0  0  0  0  0  0  0  0  0
    7.1788    2.1428    2.5236 C   0  0  0  0  0  0  0  0  0  0  0  0
    5.5215    2.9459    0.8261 C   0  0  0  0  0  0  0  0  0  0  0  0
    3.7765    1.5712    3.6396 C   0  0  0  0  0  0  0  0  0  0  0  0
    4.9034    3.6955    3.6775 O   0  0  0  0  0  0  0  0  0  0  0  0
    2.8890    2.0359    4.7808 C   0  0  0  0  0  0  0  0  0  0  0  0
    1.8527    0.9880    5.1603 C   0  0  0  0  0  0  0  0  0  0  0  0
    0.7285    0.8885    4.1533 C   0  0  0  0  0  0  0  0  0  0  0  0
  1  2  1  0  0  0  0 
  1  3  1  0  0  0  0 
  1  4  1  0  0  0  0 
  2  5  1  0  0  0  0 
  2  6  2  0  0  0  0 
  5  7  1  0  0  0  0 
  7  8  1  0  0  0  0 
  8  9  1  0  0  0  0 
M  END
> <Name>
3-HEPTANONE, 2-METHYL-

> <Source>
NIST3DMolFile

> <Tox>
158

> <CAS>
13019-20-0

$$$$

  CDK

  4  3  0  0  0  0  0  0  0  0999 V2000
    0.0000    0.0000    0.0000 C   0  0  0  0  0  0  0  0  0  0  0  0
    0.8495    0.4997    0.0000 O   0  0  0  0  0  0  0  0  0  0  0  0
    1.7489    0.0000    0.0000 C   0  0  0  0  0  0  0  0  0  0  0  0
    2.5984    0.4997    0.0000 Br  0  0  0  0  0  0  0  0  0  0  0  0
  1  2  1  0  0  0  0 
  2  3  1  0  0  0  0 
  3  4  1  0  0  0  0 
M  END
> <Name>
Methane, bromomethoxy-

> <Source>
NIST2DMolFile

> <Tox>
87

> <CAS>
13057-17-5

$$$$

  CDK

 12 13  0  0  0  0  0  0  0  0999 V2000
    1.5568    0.6576    0.0000 C   0  0  0  0  0  0  0  0  0  0  0  0
    0.8423    1.0701    0.0000 C   0  0  0  0  0  0  0  0  0  0  0  0
    1.5568   -0.1674    0.0000 C   0  0  0  0  0  0  0  0  0  0  0  0
    0.1278    0.6576    0.0000 C   0  0  0  0  0  0  0  0  0  0  0  0
    0.8423   -0.5799    0.0000 C   0  0  0  0  0  0  0  0  0  0  0  0
    2.2713   -0.5799    0.0000 C   0  0  0  0  0  0  0  0  0  0  0  0
   -0.5866    1.0701    0.0000 C   0  0  0  0  0  0  0  0  0  0  0  0
    0.1278   -0.1674    0.0000 C   0  0  0  0  0  0  0  0  0  0  0  0
   -1.3011    0.6576    0.0000 C   0  0  0  0  0  0  0  0  0  0  0  0
   -0.5866   -0.5799    0.0000 C   0  0  0  0  0  0  0  0  0  0  0  0
   -1.3011   -0.1674    0.0000 C   0  0  0  0  0  0  0  0  0  0  0  0
   -1.8618   -0.7726    0.0000 C   0  0  0  0  0  0  0  0  0  0  0  0
  1  2  1  0  0  0  0 
  1  3  2  0  0  0  0 
  2  4  2  0  0  0  0 
  3  5  1  0  0  0  0 
  3  6  1  0  0  0  0 
  4  7  1  0  0  0  0 
  4  8  1  0  0  0  0 
  8  5  2  0  0  0  0 
  7  9  1  0  0  0  0 
  8 10  1  0  0  0  0 
  9 11  1  0  0  0  0 
 11 10  1  0  0  0  0 
 11 12  1  0  0  0  0 
M  END
> <Name>
NAPHTHALENE, 1,2,3,4-TETRAHYDRO-2,7-DIMETHYL-

> <Source>
Smiles

> <Tox>
237

> <CAS>
13065-07-1

$$$$

  CDK

  7  6  0  0  0  0  0  0  0  0999 V2000
    0.7005    0.4401    1.0526 C   0  0  0  0  0  0  0  0  0  0  0  0
    0.0001   -0.3875    0.0001 C   0  0  0  0  0  0  0  0  0  0  0  0
    2.0372    1.3337    0.3094 Cl  0  0  0  0  0  0  0  0  0  0  0  0
   -0.6983    0.4417   -1.0526 C   0  0  0  0  0  0  0  0  0  0  0  0
   -1.1804   -1.4435    0.7956 Cl  0  0  0  0  0  0  0  0  0  0  0  0
    1.1783   -1.4464   -0.7951 Cl  0  0  0  0  0  0  0  0  0  0  0  0
   -2.0361    1.3342   -0.3100 Cl  0  0  0  0  0  0  0  0  0  0  0  0
  1  2  1  0  0  0  0 
  1  3  1  0  0  0  0 
  2  4  1  0  0  0  0 
  2  5  1  0  0  0  0 
  2  6  1  0  0  0  0 
  4  7  1  0  0  0  0 
M  END
> <Name>
PROPANE, 1,2,2,3-TETRACHLORO-

> <Source>
DougDB3DMolFile

> <Tox>
165

> <CAS>
13116-53-5

$$$$

  CDK

  6  5  0  0  0  0  0  0  0  0999 V2000
    3.4006    1.6984    1.6015 C   0  0  0  0  0  0  0  0  0  0  0  0
    3.4895    2.9643    1.1929 C   0  0  0  0  0  0  0  0  0  0  0  0
    2.1450    0.9122    1.7270 C   0  0  0  0  0  0  0  0  0  0  0  0
    4.7878    3.6830    1.0766 C   0  0  0  0  0  0  0  0  0  0  0  0
    0.8726    1.6359    1.3501 C   0  0  0  0  0  0  0  0  0  0  0  0
    4.7326    5.0307    1.7638 C   0  0  0  0  0  0  0  0  0  0  0  0
  1  2  2  0  0  0  0 
  1  3  1  0  0  0  0 
  2  4  1  0  0  0  0 
  3  5  1  0  0  0  0 
  4  6  1  0  0  0  0 
M  END
> <Name>
trans-3-Hexene

> <Source>
NIST3DMolFile

> <Tox>
67.1

> <CAS>
13269-52-8

$$$$

  CDK

 11 11  0  0  0  0  0  0  0  0999 V2000
    2.4253    3.4981    0.0000 C   0  0  0  0  0  0  0  0  0  0  0  0
    2.4253    2.0988    0.0000 C   0  0  0  0  0  0  0  0  0  0  0  0
    3.6380    4.1977    0.0000 C   0  0  0  0  0  0  0  0  0  0  0  0
    3.6380    1.3992    0.0000 C   0  0  0  0  0  0  0  0  0  0  0  0
    1.2127    1.3992    0.0000 N   0  0  0  0  0  0  0  0  0  0  0  0
    4.8040    3.4981    0.0000 C   0  0  0  0  0  0  0  0  0  0  0  0
    4.8040    2.0988    0.0000 C   0  0  0  0  0  0  0  0  0  0  0  0
    0.0000    2.0988    0.0000 O   0  0  0  0  0  0  0  0  0  0  0  0
    1.2127    0.0000    0.0000 O   0  0  0  0  0  0  0  0  0  0  0  0
    6.0167    4.1977    0.0000 Cl  0  0  0  0  0  0  0  0  0  0  0  0
    6.0167    1.3992    0.0000 C   0  0  0  0  0  0  0  0  0  0  0  0
  1  2  2  0  0  0  0 
  1  3  1  0  0  0  0 
  2  4  1  0  0  0  0 
  2  5  1  0  0  0  0 
  6  3  2  0  0  0  0 
  4  7  2  0  0  0  0 
  5  8  1  0  0  0  0 
  5  9  2  0  0  0  0 
  7  6  1  0  0  0  0 
  6 10  1  0  0  0  0 
  7 11  1  0  0  0  0 
M  CHG  1   5   1
M  CHG  1   8  -1
M  END
> <Name>
Benzene, 1-chloro-2-methyl-4-nitro-

> <Source>
IndexNet2DMolFile

> <Tox>
249

> <CAS>
13290-74-9

$$$$

  CDK

  7  6  0  0  0  0  0  0  0  0999 V2000
    4.6122   -0.6638    0.0000 N   0  0  0  0  0  0  0  0  0  0  0  0
    3.4575   -0.0000    0.0000 C   0  0  0  0  0  0  0  0  0  0  0  0
    5.7601   -0.0000    0.0000 C   0  0  0  0  0  0  0  0  0  0  0  0
    2.3027   -0.6638    0.0000 C   0  0  0  0  0  0  0  0  0  0  0  0
    6.9149   -0.6638    0.0000 C   0  0  0  0  0  0  0  0  0  0  0  0
    1.1548   -0.0000    0.0000 C   0  0  0  0  0  0  0  0  0  0  0  0
    0.0000   -0.6638    0.0000 C   0  0  0  0  0  0  0  0  0  0  0  0
  1  2  1  0  0  0  0 
  1  3  1  0  0  0  0 
  2  4  1  0  0  0  0 
  3  5  1  0  0  0  0 
  4  6  1  0  0  0  0 
  6  7  1  0  0  0  0 
M  END
> <Name>
1-Butanamine, N-ethyl-

> <Source>
DSSTox2DMolFile

> <Tox>
107.5

> <CAS>
13360-63-9

$$$$

  CDK

 10 10  0  0  0  0  0  0  0  0999 V2000
    0.5305   -1.0643   -0.2388 N   0  0  0  0  0  0  0  0  0  0  0  0
   -0.5945   -0.3225   -0.2680 C   0  0  0  0  0  0  0  0  0  0  0  0
    1.6746   -0.3955    0.0074 C   0  0  0  0  0  0  0  0  0  0  0  0
   -1.8670   -1.0500   -0.5398 C   0  0  0  0  0  0  0  0  0  0  0  0
   -0.5761    1.0389   -0.0584 C   0  0  0  0  0  0  0  0  0  0  0  0
    1.6928    0.9659    0.2171 C   0  0  0  0  0  0  0  0  0  0  0  0
    2.9376   -1.1830    0.0483 C   0  0  0  0  0  0  0  0  0  0  0  0
   -2.5382   -1.5446    0.7392 C   0  0  0  0  0  0  0  0  0  0  0  0
    0.5679    1.7075    0.1880 N   0  0  0  0  0  0  0  0  0  0  0  0
   -1.8276    1.8477   -0.0950 C   0  0  0  0  0  0  0  0  0  0  0  0
  1  2  2  0  0  0  0 
  1  3  1  0  0  0  0 
  2  4  1  0  0  0  0 
  2  5  1  0  0  0  0 
  3  6  2  0  0  0  0 
  3  7  1  0  0  0  0 
  4  8  1  0  0  0  0 
  9  5  2  0  0  0  0 
  5 10  1  0  0  0  0 
  9  6  1  0  0  0  0 
M  END
> <Name>
Pyrazine, 3-ethyl-2,5-dimethyl-

> <Source>
Chemidplus3DMolFile

> <Tox>
180.5

> <CAS>
13360-65-1

$$$$

  CDK

  8  7  0  0  0  0  0  0  0  0999 V2000
    5.0187    3.9358    3.2215 C   0  0  0  0  0  0  0  0  0  0  0  0
    4.0822    4.2859    2.0725 C   0  0  0  0  0  0  0  0  0  0  0  0
    5.4331    2.5074    3.1746 C   0  0  0  0  0  0  0  0  0  0  0  0
    2.7852    3.4947    2.1407 C   0  0  0  0  0  0  0  0  0  0  0  0
    6.6644    2.0939    3.4746 C   0  0  0  0  0  0  0  0  0  0  0  0
    1.9170    3.7331    0.9172 C   0  0  0  0  0  0  0  0  0  0  0  0
    7.0670    0.6705    3.4450 C   0  0  0  0  0  0  0  0  0  0  0  0
    0.6223    2.9563    0.9975 C   0  0  0  0  0  0  0  0  0  0  0  0
  1  2  1  0  0  0  0 
  1  3  1  0  0  0  0 
  2  4  1  0  0  0  0 
  3  5  2  0  0  0  0 
  4  6  1  0  0  0  0 
  5  7  1  0  0  0  0 
  6  8  1  0  0  0  0 
M  END
> <Name>
2-OCTENE (TRANS)

> <Source>
NIST3DMolFile

> <Tox>
125

> <CAS>
13389-42-9

$$$$

  CDK

  6  6  0  0  0  0  0  0  0  0999 V2000
   -1.4351    0.7200   -0.0554 O   0  0  0  0  0  0  0  0  0  0  0  0
   -0.0689    1.1613   -0.0864 C   0  0  0  0  0  0  0  0  0  0  0  0
   -1.4485   -0.7100    0.0670 C   0  0  0  0  0  0  0  0  0  0  0  0
    0.7742   -0.0175    0.3680 C   0  0  0  0  0  0  0  0  0  0  0  0
   -0.0290   -1.1829   -0.1672 C   0  0  0  0  0  0  0  0  0  0  0  0
    2.2073    0.0291   -0.1260 C   0  0  0  0  0  0  0  0  0  0  0  0
  1  2  1  0  0  0  0 
  1  3  1  0  0  0  0 
  4  2  1  0  0  0  0 
  5  3  1  0  0  0  0 
  4  5  1  0  0  0  0 
  4  6  1  0  0  0  0 
M  END
> <Name>
Furan, tetrahydro-3-methyl-

> <Source>
Chemidplus3DMolFile

> <Tox>
86.5

> <CAS>
13423-15-9

$$$$

  CDK

 10 10  0  0  0  0  0  0  0  0999 V2000
   -0.2679   -1.7016    0.0000 O   0  0  0  0  0  0  0  0  0  0  0  0
   -0.2679   -0.8766    0.0000 C   0  0  0  0  0  0  0  0  0  0  0  0
    0.4465   -0.4641    0.0000 C   0  0  0  0  0  0  0  0  0  0  0  0
   -0.9824   -0.4641    0.0000 C   0  0  0  0  0  0  0  0  0  0  0  0
    1.1610   -0.8766    0.0000 Cl  0  0  0  0  0  0  0  0  0  0  0  0
    0.4465    0.3609    0.0000 C   0  0  0  0  0  0  0  0  0  0  0  0
   -0.9824    0.3609    0.0000 C   0  0  0  0  0  0  0  0  0  0  0  0
   -1.6969   -0.8766    0.0000 Cl  0  0  0  0  0  0  0  0  0  0  0  0
    1.1610    0.7734    0.0000 C   0  0  0  0  0  0  0  0  0  0  0  0
   -0.2679    0.7734    0.0000 C   0  0  0  0  0  0  0  0  0  0  0  0
  1  2  1  0  0  0  0 
  2  3  1  0  0  0  0 
  2  4  2  0  0  0  0 
  3  5  1  0  0  0  0 
  3  6  2  0  0  0  0 
  7  4  1  0  0  0  0 
  4  8  1  0  0  0  0 
  6  9  1  0  0  0  0 
  6 10  1  0  0  0  0 
 10  7  2  0  0  0  0 
M  END
> <Name>
2,6-Dichloro-3-methyl-phenol

> <Source>
Smiles

> <Tox>
237

> <CAS>
13481-70-4

$$$$

  CDK

  6  5  0  0  0  0  0  0  0  0999 V2000
   -1.8877   -0.0991    0.0000 Cl  0  0  0  0  0  0  0  0  0  0  0  0
   -1.0869    0.0991    0.0000 C   0  0  0  0  0  0  0  0  0  0  0  0
   -0.2860    0.2972    0.0000 C   0  0  0  0  0  0  0  0  0  0  0  0
   -0.0572    1.0899    0.0000 Cl  0  0  0  0  0  0  0  0  0  0  0  0
    0.2860   -0.2972    0.0000 C   0  0  0  0  0  0  0  0  0  0  0  0
    1.0869   -0.0991    0.0000 C   0  0  0  0  0  0  0  0  0  0  0  0
  1  2  1  0  0  0  0 
  2  3  1  0  0  0  0 
  3  4  1  0  0  0  0 
  3  5  2  0  0  0  0 
  5  6  1  0  0  0  0 
M  END
> <Name>
1,2-Dichloro-but-2-ene

> <Source>
Smiles

> <Tox>
130.5

> <CAS>
13602-13-6

$$$$

  CDK

  8  8  0  0  0  0  0  0  0  0999 V2000
    0.0000    0.0000    0.0000 C   0  0  0  0  0  0  0  0  0  0  0  0
    0.3800   -0.0400    1.3600 O   0  0  0  0  0  0  0  0  0  0  0  0
    1.7200    0.3600    1.5600 C   0  0  0  0  0  0  0  0  0  0  0  0
    2.6400   -0.7800    1.1400 C   0  0  0  0  0  0  0  0  0  0  0  0
    3.9400   -0.6200    0.6400 C   0  0  0  0  0  0  0  0  0  0  0  0
    2.2800   -2.0800    1.2200 O   0  0  0  0  0  0  0  0  0  0  0  0
    4.4000   -1.9200    0.4000 C   0  0  0  0  0  0  0  0  0  0  0  0
    3.3400   -2.7600    0.7600 C   0  0  0  0  0  0  0  0  0  0  0  0
  1  2  1  0  0  0  0 
  2  3  1  0  0  0  0 
  3  4  1  0  0  0  0 
  4  5  2  0  0  0  0 
  4  6  1  0  0  0  0 
  5  7  1  0  0  0  0 
  8  6  1  0  0  0  0 
  7  8  2  0  0  0  0 
M  END
> <Name>
Furan, 2-(methoxymethyl)-

> <Source>
NIH3DMolFile

> <Tox>
132

> <CAS>
13679-46-4

$$$$

  CDK

  9  9  0  0  0  0  0  0  0  0999 V2000
    2.2857    0.0000    0.0000 C   0  0  0  0  0  0  0  0  0  0  0  0
    1.2698    0.0000    0.0000 C   0  0  0  0  0  0  0  0  0  0  0  0
    2.5905    0.9651    0.0000 C   0  0  0  0  0  0  0  0  0  0  0  0
    0.9651    0.9651    0.0000 C   0  0  0  0  0  0  0  0  0  0  0  0
    1.7778    1.5238    0.0000 S   0  0  0  0  0  0  0  0  0  0  0  0
    3.5048    1.2698    0.0000 C   0  0  0  0  0  0  0  0  0  0  0  0
    0.0000    1.2698    0.0000 C   0  0  0  0  0  0  0  0  0  0  0  0
    3.7080    2.2857    0.0000 O   0  0  0  0  0  0  0  0  0  0  0  0
    4.2667    0.6603    0.0000 C   0  0  0  0  0  0  0  0  0  0  0  0
  1  2  1  0  0  0  0 
  3  1  2  0  0  0  0 
  2  4  2  0  0  0  0 
  5  3  1  0  0  0  0 
  3  6  1  0  0  0  0 
  4  5  1  0  0  0  0 
  4  7  1  0  0  0  0 
  6  8  2  0  0  0  0 
  6  9  1  0  0  0  0 
M  END
> <Name>
1-(5-Methyl-thiophen-2-yl)-ethanone

> <Source>
NIST2DMolFile

> <Tox>
232.5

> <CAS>
13679-74-8

$$$$

  CDK

 10  9  0  0  0  0  0  0  0  0999 V2000
    2.7910   -0.1799    0.0000 F   0  0  0  0  0  0  0  0  0  0  0  0
    3.4561   -1.3301    0.0000 C   0  0  0  0  0  0  0  0  0  0  0  0
    4.1211   -2.4857    0.0000 C   0  0  0  0  0  0  0  0  0  0  0  0
    2.3059   -1.9951    0.0000 O   0  0  0  0  0  0  0  0  0  0  0  0
    4.6063   -0.6650    0.0000 F   0  0  0  0  0  0  0  0  0  0  0  0
    3.4561   -3.6359    0.0000 F   0  0  0  0  0  0  0  0  0  0  0  0
    5.4512   -2.4857    0.0000 Cl  0  0  0  0  0  0  0  0  0  0  0  0
    1.1502   -1.3301    0.0000 C   0  0  0  0  0  0  0  0  0  0  0  0
    1.1502   -0.0000    0.0000 F   0  0  0  0  0  0  0  0  0  0  0  0
    0.0000   -1.9951    0.0000 F   0  0  0  0  0  0  0  0  0  0  0  0
  1  2  1  0  0  0  0 
  2  3  1  0  0  0  0 
  2  4  1  0  0  0  0 
  2  5  1  0  0  0  0 
  3  6  1  0  0  0  0 
  3  7  1  0  0  0  0 
  4  8  1  0  0  0  0 
  8  9  1  0  0  0  0 
  8 10  1  0  0  0  0 
M  END
> <Name>
ETHRANE [HALOETHER]

> <Source>
DSSTox2DMolFile

> <Tox>
56.5

> <CAS>
13838-16-9

$$$$

  CDK

 10 10  0  0  0  0  0  0  0  0999 V2000
    3.4884    1.7442    0.0000 C   0  0  0  0  0  0  0  0  0  0  0  0
    2.9900    0.8472    0.0000 C   0  0  0  0  0  0  0  0  0  0  0  0
    3.4884    0.0000    0.0000 C   0  0  0  0  0  0  0  0  0  0  0  0
    1.9934    0.8472    0.0000 C   0  0  0  0  0  0  0  0  0  0  0  0
    1.4950    1.7442    0.0000 C   0  0  0  0  0  0  0  0  0  0  0  0
    1.4950    0.0000    0.0000 C   0  0  0  0  0  0  0  0  0  0  0  0
    0.4983    1.7442    0.0000 C   0  0  0  0  0  0  0  0  0  0  0  0
    0.4983    0.0000    0.0000 C   0  0  0  0  0  0  0  0  0  0  0  0
    0.0000    2.5914    0.0000 C   0  0  0  0  0  0  0  0  0  0  0  0
    0.0000    0.8472    0.0000 C   0  0  0  0  0  0  0  0  0  0  0  0
  1  2  1  0  0  0  0 
  2  3  2  0  0  0  0 
  2  4  1  0  0  0  0 
  5  4  1  0  0  0  0 
  4  6  1  0  0  0  0 
  7  5  1  0  0  0  0 
  6  8  1  0  0  0  0 
  7  9  1  0  0  0  0 
 10  7  2  0  0  0  0 
  8 10  1  0  0  0  0 
M  END
> <Name>
CYCLOHEXENE, 1-METHYL-5-(1-METHYLETHENYL)-

> <Source>
NIST2DMolFile

> <Tox>
176

> <CAS>
13898-73-2

$$$$

  CDK

  8  8  0  0  0  0  0  0  0  0999 V2000
    0.9055    1.9618    0.0000 N   0  0  0  0  0  0  0  0  0  0  0  0
    1.7606    1.5091    0.0000 C   0  0  0  0  0  0  0  0  0  0  0  0
    0.0000    1.5091    0.0000 C   0  0  0  0  0  0  0  0  0  0  0  0
    1.7606    0.5030    0.0000 C   0  0  0  0  0  0  0  0  0  0  0  0
    2.6158    1.9618    0.0000 C   0  0  0  0  0  0  0  0  0  0  0  0
    0.0000    0.5030    0.0000 C   0  0  0  0  0  0  0  0  0  0  0  0
    0.8552    0.0000    0.0000 N   0  0  0  0  0  0  0  0  0  0  0  0
    3.5213    1.5091    0.0000 C   0  0  0  0  0  0  0  0  0  0  0  0
  1  2  2  0  0  0  0 
  3  1  1  0  0  0  0 
  2  4  1  0  0  0  0 
  2  5  1  0  0  0  0 
  6  3  2  0  0  0  0 
  4  7  2  0  0  0  0 
  5  8  1  0  0  0  0 
  7  6  1  0  0  0  0 
M  END
> <Name>
2-ETHYL PYRAZINE

> <Source>
NIST2DMolFile

> <Tox>
152.5

> <CAS>
13925-00-3

$$$$

  CDK

  5  4  0  0  0  0  0  0  0  0999 V2000
    0.0000   -1.3308    0.0000 C   0  0  0  0  0  0  0  0  0  0  0  0
    1.1511   -1.9945    0.0000 C   0  0  0  0  0  0  0  0  0  0  0  0
    2.3056   -1.3308    0.0000 C   0  0  0  0  0  0  0  0  0  0  0  0
    2.3056   -0.0000    0.0000 N   0  0  0  0  0  0  0  0  0  0  0  0
    3.4567   -1.9945    0.0000 C   0  0  0  0  0  0  0  0  0  0  0  0
  1  2  1  0  0  0  0 
  2  3  1  0  0  0  0 
  3  4  1  0  0  0  0 
  3  5  1  0  0  0  0 
M  END
> <Name>
SEC-BUTYLAMINE

> <Source>
DSSTox2DMolFile

> <Tox>
63

> <CAS>
13952-84-6

$$$$

  CDK

 12 11  0  0  0  0  0  0  0  0999 V2000
    3.3238   -0.0000    0.0000 C   0  0  0  0  0  0  0  0  0  0  0  0
    1.9931   -0.0000    0.0000 C   0  0  0  0  0  0  0  0  0  0  0  0
    1.3307   -1.1521    0.0000 O   0  0  0  0  0  0  0  0  0  0  0  0
    1.9931   -2.3042    0.0000 C   0  0  0  0  0  0  0  0  0  0  0  0
    3.3238   -2.3042    0.0000 O   0  0  0  0  0  0  0  0  0  0  0  0
    1.3307   -3.4563    0.0000 C   0  0  0  0  0  0  0  0  0  0  0  0
    0.0000   -3.4563    0.0000 Cl  0  0  0  0  0  0  0  0  0  0  0  0
    1.9931   -4.6084    0.0000 C   0  0  0  0  0  0  0  0  0  0  0  0
    1.3307   -5.7604    0.0000 O   0  0  0  0  0  0  0  0  0  0  0  0
    3.3238   -4.6084    0.0000 O   0  0  0  0  0  0  0  0  0  0  0  0
    3.9920   -5.7604    0.0000 C   0  0  0  0  0  0  0  0  0  0  0  0
    5.3227   -5.7604    0.0000 C   0  0  0  0  0  0  0  0  0  0  0  0
  1  2  1  0  0  0  0 
  2  3  1  0  0  0  0 
  3  4  1  0  0  0  0 
  4  5  2  0  0  0  0 
  4  6  1  0  0  0  0 
  6  7  1  0  0  0  0 
  6  8  1  0  0  0  0 
  8  9  2  0  0  0  0 
  8 10  1  0  0  0  0 
 10 11  1  0  0  0  0 
 11 12  1  0  0  0  0 
M  END
> <Name>
Propanedioic acid, chloro-, diethyl ester

> <Source>
DSSTox2DMolFile

> <Tox>
222

> <CAS>
14064-10-9

$$$$

  CDK

  7  7  0  0  0  0  0  0  0  0999 V2000
    1.3067    3.6400    0.0000 S   0  0  0  0  0  0  0  0  0  0  0  0
    2.1467    2.4733    0.0000 C   0  0  0  0  0  0  0  0  0  0  0  0
    0.0000    3.1733    0.0000 C   0  0  0  0  0  0  0  0  0  0  0  0
    3.5467    2.4733    0.0000 Br  0  0  0  0  0  0  0  0  0  0  0  0
    1.3067    1.3533    0.0000 C   0  0  0  0  0  0  0  0  0  0  0  0
    0.0000    1.7733    0.0000 C   0  0  0  0  0  0  0  0  0  0  0  0
    1.7733    0.0000    0.0000 C   0  0  0  0  0  0  0  0  0  0  0  0
  1  2  1  0  0  0  0 
  1  3  1  0  0  0  0 
  2  4  1  0  0  0  0 
  2  5  2  0  0  0  0 
  6  3  2  0  0  0  0 
  5  7  1  0  0  0  0 
  5  6  1  0  0  0  0 
M  END
> <Name>
1-Bromo-2-methyl thiophene

> <Source>
IndexNet2DMolFile

> <Tox>
176

> <CAS>
14282-76-9

$$$$

  CDK

  9  9  0  0  0  0  0  0  0  0999 V2000
    1.7493    2.9988    0.0000 C   0  0  0  0  0  0  0  0  0  0  0  0
    1.7493    1.9992    0.0000 C   0  0  0  0  0  0  0  0  0  0  0  0
    0.8996    1.4994    0.0000 C   0  0  0  0  0  0  0  0  0  0  0  0
    2.5989    1.4994    0.0000 N   0  0  0  0  0  0  0  0  0  0  0  0
    0.0000    1.9992    0.0000 C   0  0  0  0  0  0  0  0  0  0  0  0
    0.8996    0.4998    0.0000 N   0  0  0  0  0  0  0  0  0  0  0  0
    2.5989    0.4998    0.0000 C   0  0  0  0  0  0  0  0  0  0  0  0
    1.7493    0.0000    0.0000 C   0  0  0  0  0  0  0  0  0  0  0  0
    3.4985    0.0000    0.0000 C   0  0  0  0  0  0  0  0  0  0  0  0
  1  2  1  0  0  0  0 
  3  2  2  0  0  0  0 
  2  4  1  0  0  0  0 
  3  5  1  0  0  0  0 
  6  3  1  0  0  0  0 
  4  7  2  0  0  0  0 
  8  6  2  0  0  0  0 
  7  8  1  0  0  0  0 
  7  9  1  0  0  0  0 
M  END
> <Name>
PYRAZINE, TRIMETHYL-

> <Source>
NIST2DMolFile

> <Tox>
171.5

> <CAS>
14667-55-1

$$$$

  CDK

 10  9  0  0  0  0  0  0  0  0999 V2000
    0.0000    1.7523    0.0000 C   0  0  0  0  0  0  0  0  0  0  0  0
    1.0013    1.7523    0.0000 C   0  0  0  0  0  0  0  0  0  0  0  0
    1.5020    2.6035    0.0000 O   0  0  0  0  0  0  0  0  0  0  0  0
    1.5020    0.8511    0.0000 O   0  0  0  0  0  0  0  0  0  0  0  0
    2.5033    2.6035    0.0000 C   0  0  0  0  0  0  0  0  0  0  0  0
    2.5033    0.8511    0.0000 C   0  0  0  0  0  0  0  0  0  0  0  0
    3.0040    3.4546    0.0000 C   0  0  0  0  0  0  0  0  0  0  0  0
    3.0040    0.0000    0.0000 C   0  0  0  0  0  0  0  0  0  0  0  0
    4.0053    3.4546    0.0000 Cl  0  0  0  0  0  0  0  0  0  0  0  0
    4.0053    0.0000    0.0000 Cl  0  0  0  0  0  0  0  0  0  0  0  0
  1  2  1  0  0  0  0 
  2  3  1  0  0  0  0 
  2  4  1  0  0  0  0 
  3  5  1  0  0  0  0 
  4  6  1  0  0  0  0 
  5  7  1  0  0  0  0 
  6  8  1  0  0  0  0 
  7  9  1  0  0  0  0 
  8 10  1  0  0  0  0 
M  END
> <Name>
1-Chloro-3-(2-chloro-ethoxy)-butane

> <Source>
NIST2DMolFile

> <Tox>
195

> <CAS>
14689-97-5

$$$$

  CDK

 10  9  0  0  0  0  0  0  0  0999 V2000
    5.1127    3.3518    1.2013 C   0  0  0  0  0  0  0  0  0  0  0  0
    4.3484    2.1362    1.7381 C   0  0  0  0  0  0  0  0  0  0  0  0
    6.4044    3.7064    1.9635 C   0  0  0  0  0  0  0  0  0  0  0  0
    2.8447    2.3127    1.5070 C   0  0  0  0  0  0  0  0  0  0  0  0
    4.8216    0.8411    1.0963 C   0  0  0  0  0  0  0  0  0  0  0  0
    6.9469    5.0233    1.4019 C   0  0  0  0  0  0  0  0  0  0  0  0
    7.4657    2.6256    1.7735 C   0  0  0  0  0  0  0  0  0  0  0  0
    6.1159    3.8880    3.4518 C   0  0  0  0  0  0  0  0  0  0  0  0
    2.0396    1.2341    2.2162 C   0  0  0  0  0  0  0  0  0  0  0  0
    0.5752    1.2981    1.8500 C   0  0  0  0  0  0  0  0  0  0  0  0
  1  2  1  0  0  0  0 
  1  3  1  0  0  0  0 
  2  4  1  0  0  0  0 
  2  5  1  0  0  0  0 
  3  6  1  0  0  0  0 
  3  7  1  0  0  0  0 
  3  8  1  0  0  0  0 
  4  9  1  0  0  0  0 
  9 10  1  0  0  0  0 
M  END
> <Name>
HEPTANE, 2,2,4-TRIMETHYL-

> <Source>
NIST3DMolFile

> <Tox>
148.3

> <CAS>
14720-74-2

$$$$

  CDK

  8  7  0  0  0  0  0  0  0  0999 V2000
    4.4214    2.1749    2.0261 C   0  0  0  0  0  0  0  0  0  0  0  0
    4.4318    3.5021    1.3540 C   0  0  0  0  0  0  0  0  0  0  0  0
    5.2963    1.1958    1.7913 C   0  0  0  0  0  0  0  0  0  0  0  0
    3.0730    3.8594    0.7684 C   0  0  0  0  0  0  0  0  0  0  0  0
    6.4051    1.2648    0.8019 C   0  0  0  0  0  0  0  0  0  0  0  0
    2.0651    4.2567    1.8358 C   0  0  0  0  0  0  0  0  0  0  0  0
    7.7415    0.9857    1.4541 C   0  0  0  0  0  0  0  0  0  0  0  0
    0.7237    4.6010    1.2295 C   0  0  0  0  0  0  0  0  0  0  0  0
  1  2  1  0  0  0  0 
  1  3  2  0  0  0  0 
  2  4  1  0  0  0  0 
  3  5  1  0  0  0  0 
  4  6  1  0  0  0  0 
  5  7  1  0  0  0  0 
  6  8  1  0  0  0  0 
M  END
> <Name>
3-OCTENE, (Z)-

> <Source>
NIST3DMolFile

> <Tox>
122.9

> <CAS>
14850-22-7

$$$$

  CDK

 17 16  0  0  0  0  0  0  0  0999 V2000
    6.9459    1.4991    0.0000 C   0  0  0  0  0  0  0  0  0  0  0  0
    6.0465    0.9994    0.0000 C   0  0  0  0  0  0  0  0  0  0  0  0
    7.7954    0.9994    0.0000 C   0  0  0  0  0  0  0  0  0  0  0  0
    5.1970    1.4991    0.0000 C   0  0  0  0  0  0  0  0  0  0  0  0
    8.6449    1.4991    0.0000 C   0  0  0  0  0  0  0  0  0  0  0  0
    4.3475    0.9994    0.0000 C   0  0  0  0  0  0  0  0  0  0  0  0
    9.5444    0.9994    0.0000 C   0  0  0  0  0  0  0  0  0  0  0  0
    3.4480    1.4991    0.0000 C   0  0  0  0  0  0  0  0  0  0  0  0
   10.3939    1.4991    0.0000 C   0  0  0  0  0  0  0  0  0  0  0  0
    2.5985    0.9994    0.0000 C   0  0  0  0  0  0  0  0  0  0  0  0
   11.2434    0.9994    0.0000 C   0  0  0  0  0  0  0  0  0  0  0  0
    1.7490    1.4991    0.0000 C   0  0  0  0  0  0  0  0  0  0  0  0
   12.1429    1.4991    0.0000 C   0  0  0  0  0  0  0  0  0  0  0  0
    0.8495    0.9994    0.0000 C   0  0  0  0  0  0  0  0  0  0  0  0
   12.9924    0.9994    0.0000 C   0  0  0  0  0  0  0  0  0  0  0  0
    0.8495    0.0000    0.0000 C   0  0  0  0  0  0  0  0  0  0  0  0
    0.0000    1.4991    0.0000 O   0  0  0  0  0  0  0  0  0  0  0  0
  1  2  1  0  0  0  0 
  1  3  1  0  0  0  0 
  2  4  1  0  0  0  0 
  3  5  1  0  0  0  0 
  4  6  1  0  0  0  0 
  5  7  1  0  0  0  0 
  6  8  1  0  0  0  0 
  7  9  1  0  0  0  0 
  8 10  1  0  0  0  0 
  9 11  1  0  0  0  0 
 10 12  1  0  0  0  0 
 11 13  1  0  0  0  0 
 12 14  1  0  0  0  0 
 13 15  1  0  0  0  0 
 14 16  1  0  0  0  0 
 14 17  1  0  0  0  0 
M  END
> <Name>
2-HEXADECANOL

> <Source>
NIST2DMolFile

> <Tox>
314

> <CAS>
14852-31-4

$$$$

  CDK

  8  7  0  0  0  0  0  0  0  0999 V2000
    5.3664    1.7644    1.8415 C   0  0  0  0  0  0  0  0  0  0  0  0
    4.0279    2.2001    1.3584 C   0  0  0  0  0  0  0  0  0  0  0  0
    6.4395    1.7265    1.0513 C   0  0  0  0  0  0  0  0  0  0  0  0
    3.4476    3.2794    2.2620 C   0  0  0  0  0  0  0  0  0  0  0  0
    7.8013    1.2881    1.4558 C   0  0  0  0  0  0  0  0  0  0  0  0
    2.0637    3.7263    1.8154 C   0  0  0  0  0  0  0  0  0  0  0  0
    7.9547    0.8540    2.8955 C   0  0  0  0  0  0  0  0  0  0  0  0
    0.9897    2.7119    2.1390 C   0  0  0  0  0  0  0  0  0  0  0  0
  1  2  1  0  0  0  0 
  1  3  2  0  0  0  0 
  2  4  1  0  0  0  0 
  3  5  1  0  0  0  0 
  4  6  1  0  0  0  0 
  5  7  1  0  0  0  0 
  6  8  1  0  0  0  0 
M  END
> <Name>
3-OCTENE, (E)-

> <Source>
NIST3DMolFile

> <Tox>
123.3

> <CAS>
14919-01-8

$$$$

  CDK

 12 12  0  0  0  0  0  0  0  0999 V2000
    9.7872    0.0000    0.0000 C   0  0  0  0  0  0  0  0  0  0  0  0
    8.3711    0.0000    0.0000 C   0  0  0  0  0  0  0  0  0  0  0  0
    7.6631    1.2078    0.0000 C   0  0  0  0  0  0  0  0  0  0  0  0
    6.2888    1.2078    0.0000 C   0  0  0  0  0  0  0  0  0  0  0  0
    5.5808    2.4156    0.0000 C   0  0  0  0  0  0  0  0  0  0  0  0
    4.1647    2.4156    0.0000 C   0  0  0  0  0  0  0  0  0  0  0  0
    3.4567    1.2078    0.0000 C   0  0  0  0  0  0  0  0  0  0  0  0
    3.4567    3.6233    0.0000 C   0  0  0  0  0  0  0  0  0  0  0  0
    2.0824    1.2078    0.0000 C   0  0  0  0  0  0  0  0  0  0  0  0
    2.0824    3.6233    0.0000 C   0  0  0  0  0  0  0  0  0  0  0  0
    1.3744    2.4156    0.0000 C   0  0  0  0  0  0  0  0  0  0  0  0
    0.0000    2.4156    0.0000 O   0  0  0  0  0  0  0  0  0  0  0  0
  1  2  1  0  0  0  0 
  2  3  1  0  0  0  0 
  3  4  1  0  0  0  0 
  4  5  1  0  0  0  0 
  5  6  1  0  0  0  0 
  6  7  1  0  0  0  0 
  6  8  2  0  0  0  0 
  7  9  2  0  0  0  0 
 10  8  1  0  0  0  0 
  9 11  1  0  0  0  0 
 11 10  2  0  0  0  0 
 11 12  1  0  0  0  0 
M  END
> <Name>
4-PENTYLPHENOL

> <Source>
IndexNet2DMolFile

> <Tox>
250.5

> <CAS>
14938-35-3

$$$$

  CDK

 11 11  0  0  0  0  0  0  0  0999 V2000
   -1.8494    0.0992   -0.3694 O   0  0  0  0  0  0  0  0  0  0  0  0
   -0.6396   -0.3701    0.0490 C   0  0  0  0  0  0  0  0  0  0  0  0
   -2.9537   -0.1924    0.4930 C   0  0  0  0  0  0  0  0  0  0  0  0
   -0.4207   -1.0034    1.0728 O   0  0  0  0  0  0  0  0  0  0  0  0
    0.4181    0.0079   -0.9488 C   0  0  0  0  0  0  0  0  0  0  0  0
   -4.2151    0.3914   -0.1066 C   0  0  0  0  0  0  0  0  0  0  0  0
    0.9761    1.3938   -0.6187 C   0  0  0  0  0  0  0  0  0  0  0  0
    1.5197   -1.0582   -1.0112 C   0  0  0  0  0  0  0  0  0  0  0  0
    1.8308    1.4033    0.6532 C   0  0  0  0  0  0  0  0  0  0  0  0
    2.6011   -0.8848    0.0154 C   0  0  0  0  0  0  0  0  0  0  0  0
    2.7326    0.2132    0.7713 C   0  0  0  0  0  0  0  0  0  0  0  0
  1  2  1  0  0  0  0 
  1  3  1  0  0  0  0 
  4  2  2  0  0  0  0 
  5  2  1  0  0  0  0 
  3  6  1  0  0  0  0 
  5  7  1  0  0  0  0 
  5  8  1  0  0  0  0 
  7  9  1  0  0  0  0 
  8 10  1  0  0  0  0 
  9 11  1  0  0  0  0 
 10 11  2  0  0  0  0 
M  END
> <Name>
3-Cyclohexene-1-carboxylic acid, ethyl ester

> <Source>
Chemidplus3DMolFile

> <Tox>
194.5

> <CAS>
15111-56-5

$$$$

  CDK

  8  7  0  0  0  0  0  0  0  0999 V2000
    3.1255    2.2790    1.7809 C   0  0  0  0  0  0  0  0  0  0  0  0
    4.2571    1.7724    2.4722 O   0  0  0  0  0  0  0  0  0  0  0  0
    1.9511    1.3277    2.0534 C   0  0  0  0  0  0  0  0  0  0  0  0
    5.3949    2.6157    2.3711 C   0  0  0  0  0  0  0  0  0  0  0  0
    1.3977    1.5280    3.4549 C   0  0  0  0  0  0  0  0  0  0  0  0
    0.8629    1.5619    1.0179 C   0  0  0  0  0  0  0  0  0  0  0  0
    6.5156    1.9837    3.1927 C   0  0  0  0  0  0  0  0  0  0  0  0
    7.1649    0.8162    2.4846 C   0  0  0  0  0  0  0  0  0  0  0  0
  1  2  1  0  0  0  0 
  1  3  1  0  0  0  0 
  2  4  1  0  0  0  0 
  3  5  1  0  0  0  0 
  3  6  1  0  0  0  0 
  4  7  1  0  0  0  0 
  7  8  1  0  0  0  0 
M  END
> <Name>
PROPANE, 2-METHYL-1-PROPOXY-

> <Source>
NIST3DMolFile

> <Tox>
107

> <CAS>
15268-49-2

$$$$

  CDK

 11 10  0  0  0  0  0  0  0  0999 V2000
    3.5317    2.5226    0.0000 O   0  0  0  0  0  0  0  0  0  0  0  0
    2.4722    2.5226    0.0000 As  0  0  0  0  0  0  0  0  0  0  0  0
    4.0362    3.3803    0.0000 C   0  0  0  0  0  0  0  0  0  0  0  0
    1.4631    2.5226    0.0000 O   0  0  0  0  0  0  0  0  0  0  0  0
    2.4722    1.5136    0.0000 O   0  0  0  0  0  0  0  0  0  0  0  0
    2.4722    3.5317    0.0000 O   0  0  0  0  0  0  0  0  0  0  0  0
    4.9948    3.3803    0.0000 C   0  0  0  0  0  0  0  0  0  0  0  0
    1.0090    3.3803    0.0000 C   0  0  0  0  0  0  0  0  0  0  0  0
    1.6145    0.9586    0.0000 C   0  0  0  0  0  0  0  0  0  0  0  0
    0.0000    3.3803    0.0000 C   0  0  0  0  0  0  0  0  0  0  0  0
    1.6145    0.0000    0.0000 C   0  0  0  0  0  0  0  0  0  0  0  0
  1  2  1  0  0  0  0 
  1  3  1  0  0  0  0 
  2  4  1  0  0  0  0 
  2  5  1  0  0  0  0 
  2  6  2  0  0  0  0 
  3  7  1  0  0  0  0 
  4  8  1  0  0  0  0 
  5  9  1  0  0  0  0 
  8 10  1  0  0  0  0 
  9 11  1  0  0  0  0 
M  END
> <Name>
Arsenic acid, triethyl ester

> <Source>
NIST2DMolFile

> <Tox>
236.5

> <CAS>
15606-95-8

$$$$

  CDK

 10  9  0  0  0  0  0  0  0  0999 V2000
    5.3699    3.5161    1.2697 C   0  0  0  0  0  0  0  0  0  0  0  0
    3.9967    3.9851    1.7658 C   0  0  0  0  0  0  0  0  0  0  0  0
    5.9662    2.4439    2.1677 C   0  0  0  0  0  0  0  0  0  0  0  0
    2.9875    2.8360    1.6659 C   0  0  0  0  0  0  0  0  0  0  0  0
    3.5601    5.2119    0.9560 C   0  0  0  0  0  0  0  0  0  0  0  0
    7.2808    1.9200    1.6148 C   0  0  0  0  0  0  0  0  0  0  0  0
    1.8182    2.9828    2.6257 C   0  0  0  0  0  0  0  0  0  0  0  0
    2.6070    6.1104    1.7116 C   0  0  0  0  0  0  0  0  0  0  0  0
    7.8748    0.8587    2.5131 C   0  0  0  0  0  0  0  0  0  0  0  0
    0.8400    1.8391    2.4832 C   0  0  0  0  0  0  0  0  0  0  0  0
  1  2  1  0  0  0  0 
  1  3  1  0  0  0  0 
  2  4  1  0  0  0  0 
  2  5  1  0  0  0  0 
  3  6  1  0  0  0  0 
  4  7  1  0  0  0  0 
  5  8  1  0  0  0  0 
  6  9  1  0  0  0  0 
  7 10  1  0  0  0  0 
M  END
> <Name>
OCTANE, 4-ETHYL-

> <Source>
NIST3DMolFile

> <Tox>
163.7

> <CAS>
15869-86-0

$$$$

  CDK

 10  9  0  0  0  0  0  0  0  0999 V2000
    3.5524    3.0400    2.6021 C   0  0  0  0  0  0  0  0  0  0  0  0
    2.0327    3.0067    2.4409 C   0  0  0  0  0  0  0  0  0  0  0  0
    4.2354    2.0312    1.6926 C   0  0  0  0  0  0  0  0  0  0  0  0
    1.3932    4.1853    3.1774 C   0  0  0  0  0  0  0  0  0  0  0  0
    1.4694    1.6868    2.9361 C   0  0  0  0  0  0  0  0  0  0  0  0
    5.7152    1.8677    2.0389 C   0  0  0  0  0  0  0  0  0  0  0  0
    1.7407    5.5055    2.5034 C   0  0  0  0  0  0  0  0  0  0  0  0
    6.4092    1.0012    1.0020 C   0  0  0  0  0  0  0  0  0  0  0  0
    5.8787    1.2698    3.4272 C   0  0  0  0  0  0  0  0  0  0  0  0
    1.0903    5.6211    1.1426 C   0  0  0  0  0  0  0  0  0  0  0  0
  1  2  1  0  0  0  0 
  1  3  1  0  0  0  0 
  2  4  1  0  0  0  0 
  2  5  1  0  0  0  0 
  3  6  1  0  0  0  0 
  4  7  1  0  0  0  0 
  6  8  1  0  0  0  0 
  6  9  1  0  0  0  0 
  7 10  1  0  0  0  0 
M  END
> <Name>
OCTANE, 2,5-DIMETHYL-

> <Source>
NIST3DMolFile

> <Tox>
158.5

> <CAS>
15869-89-3

$$$$

  CDK

 10  9  0  0  0  0  0  0  0  0999 V2000
    2.4754    2.6954    4.2870 C   0  0  0  0  0  0  0  0  0  0  0  0
    3.9787    2.5927    3.9763 C   0  0  0  0  0  0  0  0  0  0  0  0
    2.0031    4.1226    4.0045 C   0  0  0  0  0  0  0  0  0  0  0  0
    2.2049    2.3783    5.7569 C   0  0  0  0  0  0  0  0  0  0  0  0
    1.7001    1.7014    3.4029 C   0  0  0  0  0  0  0  0  0  0  0  0
    4.5759    1.2290    4.2956 C   0  0  0  0  0  0  0  0  0  0  0  0
    1.8358    2.0122    1.9197 C   0  0  0  0  0  0  0  0  0  0  0  0
    5.9277    1.0371    3.6257 C   0  0  0  0  0  0  0  0  0  0  0  0
    1.0730    1.0271    1.0675 C   0  0  0  0  0  0  0  0  0  0  0  0
    5.8131    1.0178    2.1172 C   0  0  0  0  0  0  0  0  0  0  0  0
  1  2  1  0  0  0  0 
  1  3  1  0  0  0  0 
  1  4  1  0  0  0  0 
  1  5  1  0  0  0  0 
  2  6  1  0  0  0  0 
  5  7  1  0  0  0  0 
  6  8  1  0  0  0  0 
  9  7  1  0  0  0  0 
 10  8  1  0  0  0  0 
M  END
> <Name>
4,4-Dimethyloctane

> <Source>
NIST3DMolFile

> <Tox>
157.5

> <CAS>
15869-95-1

$$$$

  CDK

  8  7  0  0  0  0  0  0  0  0999 V2000
    1.8293    0.9263    1.7806 C   0  0  0  0  0  0  0  0  0  0  0  0
    0.9624    2.1187    2.1217 C   0  0  0  0  0  0  0  0  0  0  0  0
    3.2414    1.0861    2.3251 C   0  0  0  0  0  0  0  0  0  0  0  0
    3.9640    2.2459    1.6562 C   0  0  0  0  0  0  0  0  0  0  0  0
    5.3067    2.5474    2.3024 C   0  0  0  0  0  0  0  0  0  0  0  0
    6.4100    1.6233    1.8878 C   0  0  0  0  0  0  0  0  0  0  0  0
    6.4201    1.0007    0.7094 C   0  0  0  0  0  0  0  0  0  0  0  0
    7.5167    1.4688    2.8690 C   0  0  0  0  0  0  0  0  0  0  0  0
  1  2  1  0  0  0  0 
  1  3  1  0  0  0  0 
  3  4  1  0  0  0  0 
  5  4  1  0  0  0  0 
  6  5  1  0  0  0  0 
  7  6  2  0  0  0  0 
  6  8  1  0  0  0  0 
M  END
> <Name>
2-METHYL-1-HEPTENE

> <Source>
NIST3DMolFile

> <Tox>
119.3

> <CAS>
15870-10-7

$$$$

  CDK

  8  7  0  0  0  0  0  0  0  0999 V2000
    3.4482    1.4992    0.0000 C   0  0  0  0  0  0  0  0  0  0  0  0
    2.5986    0.9995    0.0000 C   0  0  0  0  0  0  0  0  0  0  0  0
    4.3477    0.9995    0.0000 C   0  0  0  0  0  0  0  0  0  0  0  0
    1.7491    1.4992    0.0000 C   0  0  0  0  0  0  0  0  0  0  0  0
    2.5986    0.0000    0.0000 C   0  0  0  0  0  0  0  0  0  0  0  0
    5.1972    1.4992    0.0000 C   0  0  0  0  0  0  0  0  0  0  0  0
    0.8495    0.9995    0.0000 C   0  0  0  0  0  0  0  0  0  0  0  0
    0.0000    1.4992    0.0000 C   0  0  0  0  0  0  0  0  0  0  0  0
  1  2  1  0  0  0  0 
  1  3  1  0  0  0  0 
  2  4  1  0  0  0  0 
  2  5  2  0  0  0  0 
  3  6  1  0  0  0  0 
  4  7  1  0  0  0  0 
  7  8  1  0  0  0  0 
M  END
> <Name>
HEPTANE, 4-METHYLENE-

> <Source>
NIST2DMolFile

> <Tox>
117.7

> <CAS>
15918-08-8

$$$$

  CDK

  8  8  0  0  0  0  0  0  0  0999 V2000
   -0.0657   -0.9391    0.0000 N   0  0  0  0  0  0  0  0  0  0  0  0
    0.7189   -0.6841    0.0000 N   0  0  0  0  0  0  0  0  0  0  0  0
   -0.5506   -0.2716    0.0000 C   0  0  0  0  0  0  0  0  0  0  0  0
    0.7189    0.1409    0.0000 C   0  0  0  0  0  0  0  0  0  0  0  0
   -0.0657    0.3958    0.0000 C   0  0  0  0  0  0  0  0  0  0  0  0
   -1.3756   -0.2716    0.0000 C   0  0  0  0  0  0  0  0  0  0  0  0
    1.3864    0.6258    0.0000 C   0  0  0  0  0  0  0  0  0  0  0  0
   -0.3206    1.1804    0.0000 Cl  0  0  0  0  0  0  0  0  0  0  0  0
  1  2  1  0  0  0  0 
  1  3  1  0  0  0  0 
  2  4  2  0  0  0  0 
  5  3  2  0  0  0  0 
  3  6  1  0  0  0  0 
  4  7  1  0  0  0  0 
  4  5  1  0  0  0  0 
  5  8  1  0  0  0  0 
M  END
> <Name>
4-Chloro-3,5-dimethyl-1H-pyrazole

> <Source>
Smiles

> <Tox>
221

> <CAS>
15953-73-8

$$$$

  CDK

  6  6  0  0  0  0  0  0  0  0999 V2000
    0.0000    0.8579    0.0000 C   0  0  0  0  0  0  0  0  0  0  0  0
    0.5047    1.7158    0.0000 C   0  0  0  0  0  0  0  0  0  0  0  0
    0.5047    0.0000    0.0000 S   0  0  0  0  0  0  0  0  0  0  0  0
    1.5140    1.7158    0.0000 O   0  0  0  0  0  0  0  0  0  0  0  0
    1.5140    0.0000    0.0000 C   0  0  0  0  0  0  0  0  0  0  0  0
    2.0186    0.8579    0.0000 C   0  0  0  0  0  0  0  0  0  0  0  0
  1  2  1  0  0  0  0 
  3  1  1  0  0  0  0 
  2  4  1  0  0  0  0 
  5  3  1  0  0  0  0 
  4  6  1  0  0  0  0 
  6  5  1  0  0  0  0 
M  END
> <Name>
1,4-Oxathiane

> <Source>
NIST2DMolFile

> <Tox>
147

> <CAS>
15980-15-1

$$$$

  CDK

  4  3  0  0  0  0  0  0  0  0999 V2000
    1.7478    0.5493    0.0000 C   0  0  0  0  0  0  0  0  0  0  0  0
    0.8489    0.0499    0.0000 C   0  0  0  0  0  0  0  0  0  0  0  0
    2.5967    0.0000    0.0000 Cl  0  0  0  0  0  0  0  0  0  0  0  0
    0.0000    0.4994    0.0000 C   0  0  0  0  0  0  0  0  0  0  0  0
  1  2  2  0  0  0  0 
  1  3  1  0  0  0  0 
  2  4  1  0  0  0  0 
M  END
> <Name>
1-PROPENE, 1-CHLORO-, (E)-

> <Source>
NIST2DMolFile

> <Tox>
37.4

> <CAS>
16136-85-9

$$$$

  CDK

  6  5  0  0  0  0  0  0  0  0999 V2000
    1.3067    1.8667    0.0000 Si  0  0  0  0  0  0  0  0  0  0  0  0
    0.6067    3.0800    0.0000 Cl  0  0  0  0  0  0  0  0  0  0  0  0
    2.7067    1.8667    0.0000 C   0  0  0  0  0  0  0  0  0  0  0  0
    0.0000    1.4000    0.0000 C   0  0  0  0  0  0  0  0  0  0  0  0
    1.5867    0.4667    0.0000 C   0  0  0  0  0  0  0  0  0  0  0  0
    2.8933    0.0000    0.0000 Br  0  0  0  0  0  0  0  0  0  0  0  0
  1  2  1  0  0  0  0 
  1  3  1  0  0  0  0 
  1  4  1  0  0  0  0 
  1  5  1  0  0  0  0 
  5  6  1  0  0  0  0 
M  END
> <Name>
Silane, (bromomethyl)chlorodimethyl-

> <Source>
IndexNet2DMolFile

> <Tox>
131

> <CAS>
16532-02-8

$$$$

  CDK

  8  7  0  0  0  0  0  0  0  0999 V2000
    4.2334    0.8077    2.1139 C   0  0  0  0  0  0  0  0  0  0  0  0
    4.3982    2.0599    1.2832 C   0  0  0  0  0  0  0  0  0  0  0  0
    3.0788    2.6083    0.7605 C   0  0  0  0  0  0  0  0  0  0  0  0
    2.1911    3.2093    1.8565 C   0  0  0  0  0  0  0  0  0  0  0  0
    1.3544    4.3535    1.2967 C   0  0  0  0  0  0  0  0  0  0  0  0
    1.2659    2.1960    2.4829 C   0  0  0  0  0  0  0  0  0  0  0  0
    1.0232    2.3587    3.9409 C   0  0  0  0  0  0  0  0  0  0  0  0
    0.6856    1.2271    1.7751 C   0  0  0  0  0  0  0  0  0  0  0  0
  1  2  1  0  0  0  0 
  2  3  1  0  0  0  0 
  3  4  1  0  0  0  0 
  4  5  1  0  0  0  0 
  4  6  1  0  0  0  0 
  6  7  1  0  0  0  0 
  6  8  2  0  0  0  0 
M  END
> <Name>
2,3-DIMETHYL-1-HEXENE

> <Source>
NIST3DMolFile

> <Tox>
110.5

> <CAS>
16746-86-4

$$$$

  CDK

  9  8  0  0  0  0  0  0  0  0999 V2000
    3.1554    2.7233    2.6708 C   0  0  0  0  0  0  0  0  0  0  0  0
    4.2638    2.0318    1.8493 C   0  0  0  0  0  0  0  0  0  0  0  0
    1.9161    1.9651    3.1585 C   0  0  0  0  0  0  0  0  0  0  0  0
    5.1098    1.0734    2.7089 C   0  0  0  0  0  0  0  0  0  0  0  0
    3.7084    1.2507    0.6609 C   0  0  0  0  0  0  0  0  0  0  0  0
    5.1724    3.1363    1.2901 C   0  0  0  0  0  0  0  0  0  0  0  0
    2.2366    0.7768    4.0466 C   0  0  0  0  0  0  0  0  0  0  0  0
    0.9726    1.5511    2.0418 C   0  0  0  0  0  0  0  0  0  0  0  0
    5.7438    1.7273    3.9170 C   0  0  0  0  0  0  0  0  0  0  0  0
  1  2  1  0  0  0  0 
  1  3  1  0  0  0  0 
  2  4  1  0  0  0  0 
  2  5  1  0  0  0  0 
  2  6  1  0  0  0  0 
  3  7  1  0  0  0  0 
  3  8  1  0  0  0  0 
  4  9  1  0  0  0  0 
M  END
> <Name>
2,4,4-TRIMETHYLHEXANE

> <Source>
NIST3DMolFile

> <Tox>
130.7

> <CAS>
16747-30-1

$$$$

  CDK

  9  8  0  0  0  0  0  0  0  0999 V2000
    3.3889    2.1560    2.4518 C   0  0  0  0  0  0  0  0  0  0  0  0
    1.8603    2.1747    2.7428 C   0  0  0  0  0  0  0  0  0  0  0  0
    3.8331    3.3949    1.6601 C   0  0  0  0  0  0  0  0  0  0  0  0
    4.2115    2.0136    3.7408 C   0  0  0  0  0  0  0  0  0  0  0  0
    1.0826    2.2401    1.4259 C   0  0  0  0  0  0  0  0  0  0  0  0
    1.4712    3.3698    3.6105 C   0  0  0  0  0  0  0  0  0  0  0  0
    1.4535    0.8846    3.4595 C   0  0  0  0  0  0  0  0  0  0  0  0
    5.0194    3.1211    0.7628 C   0  0  0  0  0  0  0  0  0  0  0  0
    5.5255    1.2982    3.5201 C   0  0  0  0  0  0  0  0  0  0  0  0
  1  2  1  0  0  0  0 
  1  3  1  0  0  0  0 
  1  4  1  0  0  0  0 
  2  5  1  0  0  0  0 
  2  6  1  0  0  0  0 
  2  7  1  0  0  0  0 
  3  8  1  0  0  0  0 
  4  9  1  0  0  0  0 
M  END
> <Name>
2,2-DIMETHYL-3-ETHYLPENTANE

> <Source>
NIST3DMolFile

> <Tox>
133.8

> <CAS>
16747-32-3

$$$$

  CDK

 10  9  0  0  0  0  0  0  0  0999 V2000
    0.0510    0.0000    0.0000 C   0  0  0  0  0  0  0  0  0  0  0  0
    0.5102    0.8673    0.0000 C   0  0  0  0  0  0  0  0  0  0  0  0
    0.0000    1.7346    0.0000 C   0  0  0  0  0  0  0  0  0  0  0  0
    1.5306    0.8673    0.0000 C   0  0  0  0  0  0  0  0  0  0  0  0
    2.0408    0.0000    0.0000 C   0  0  0  0  0  0  0  0  0  0  0  0
    2.0408    1.7346    0.0000 C   0  0  0  0  0  0  0  0  0  0  0  0
    3.0101    1.7346    0.0000 C   0  0  0  0  0  0  0  0  0  0  0  0
    3.0101    2.7550    0.0000 C   0  0  0  0  0  0  0  0  0  0  0  0
    3.0101    0.7653    0.0000 C   0  0  0  0  0  0  0  0  0  0  0  0
    4.0305    1.7346    0.0000 C   0  0  0  0  0  0  0  0  0  0  0  0
  1  2  1  0  0  0  0 
  2  3  1  0  0  0  0 
  2  4  1  0  0  0  0 
  4  5  1  0  0  0  0 
  4  6  1  0  0  0  0 
  6  7  1  0  0  0  0 
  7  8  1  0  0  0  0 
  7  9  1  0  0  0  0 
  7 10  1  0  0  0  0 
M  END
> <Name>
2,2,4,5-TETRAMETHYLHEXANE

> <Source>
NIST2DMolFile

> <Tox>
147.9

> <CAS>
16747-42-5

$$$$

  CDK

 10  9  0  0  0  0  0  0  0  0999 V2000
    0.0000    1.9948    0.0000 C   0  0  0  0  0  0  0  0  0  0  0  0
    0.8695    1.4833    0.0000 C   0  0  0  0  0  0  0  0  0  0  0  0
    1.7391    1.0230    0.0000 C   0  0  0  0  0  0  0  0  0  0  0  0
    1.3810    2.3529    0.0000 C   0  0  0  0  0  0  0  0  0  0  0  0
    0.3580    0.6649    0.0000 C   0  0  0  0  0  0  0  0  0  0  0  0
    2.6086    1.4833    0.0000 C   0  0  0  0  0  0  0  0  0  0  0  0
    1.7391    0.0000    0.0000 C   0  0  0  0  0  0  0  0  0  0  0  0
    3.4782    1.9948    0.0000 C   0  0  0  0  0  0  0  0  0  0  0  0
    2.0971    2.3529    0.0000 C   0  0  0  0  0  0  0  0  0  0  0  0
    3.1201    0.6138    0.0000 C   0  0  0  0  0  0  0  0  0  0  0  0
  1  2  1  0  0  0  0 
  2  3  1  0  0  0  0 
  2  4  1  0  0  0  0 
  2  5  1  0  0  0  0 
  3  6  1  0  0  0  0 
  3  7  1  0  0  0  0 
  6  8  1  0  0  0  0 
  6  9  1  0  0  0  0 
  6 10  1  0  0  0  0 
M  END
> <Name>
2,2,3,4,4-PENTAMETHYLPENTANE

> <Source>
NIST2DMolFile

> <Tox>
159.3

> <CAS>
16747-45-8

$$$$

  CDK

 10 11  0  0  0  0  0  0  0  0999 V2000
    1.1276    0.4273    0.0000 O   0  0  0  0  0  0  0  0  0  0  0  0
    1.6125   -0.2402    0.0000 C   0  0  0  0  0  0  0  0  0  0  0  0
    0.3430    0.1723    0.0000 C   0  0  0  0  0  0  0  0  0  0  0  0
    1.1276   -0.9076    0.0000 C   0  0  0  0  0  0  0  0  0  0  0  0
   -0.3715    0.5848    0.0000 C   0  0  0  0  0  0  0  0  0  0  0  0
    0.3430   -0.6527    0.0000 C   0  0  0  0  0  0  0  0  0  0  0  0
   -1.0860    0.1723    0.0000 C   0  0  0  0  0  0  0  0  0  0  0  0
   -0.3715    1.4098    0.0000 C   0  0  0  0  0  0  0  0  0  0  0  0
   -0.3715   -1.0652    0.0000 C   0  0  0  0  0  0  0  0  0  0  0  0
   -1.0860   -0.6527    0.0000 C   0  0  0  0  0  0  0  0  0  0  0  0
  1  2  1  0  0  0  0 
  1  3  1  0  0  0  0 
  2  4  2  0  0  0  0 
  3  5  1  0  0  0  0 
  3  6  2  0  0  0  0 
  4  6  1  0  0  0  0 
  5  7  2  0  0  0  0 
  5  8  1  0  0  0  0 
  6  9  1  0  0  0  0 
  7 10  1  0  0  0  0 
 10  9  2  0  0  0  0 
M  END
> <Name>
BENZOFURAN, 7-METHYL-

> <Source>
Smiles

> <Tox>
190.5

> <CAS>
17059-52-8

$$$$

  CDK

  9  8  0  0  0  0  0  0  0  0999 V2000
   -0.4343   -0.8265    0.0000 O   0  0  0  0  0  0  0  0  0  0  0  0
    0.3777   -0.6808    0.0000 C   0  0  0  0  0  0  0  0  0  0  0  0
   -0.9665   -0.1962    0.0000 C   0  0  0  0  0  0  0  0  0  0  0  0
    1.1898   -0.5351    0.0000 C   0  0  0  0  0  0  0  0  0  0  0  0
   -1.4987    0.4342    0.0000 C   0  0  0  0  0  0  0  0  0  0  0  0
    2.0018   -0.3894    0.0000 C   0  0  0  0  0  0  0  0  0  0  0  0
   -2.1291   -0.0980    0.0000 C   0  0  0  0  0  0  0  0  0  0  0  0
   -2.0309    1.0646    0.0000 C   0  0  0  0  0  0  0  0  0  0  0  0
    2.8138   -0.2437    0.0000 C   0  0  0  0  0  0  0  0  0  0  0  0
  1  2  1  0  0  0  0 
  1  3  1  0  0  0  0 
  2  4  1  0  0  0  0 
  3  5  1  0  0  0  0 
  4  6  1  0  0  0  0 
  5  7  1  0  0  0  0 
  5  8  1  0  0  0  0 
  6  9  1  0  0  0  0 
M  END
> <Name>
Butane, 1-(2-methylpropoxy)-

> <Source>
Smiles

> <Tox>
151

> <CAS>
17071-47-5

$$$$

  CDK

  9  9  0  0  0  0  0  0  0  0999 V2000
    0.0000    0.0000    0.0000 C   0  0  0  0  0  0  0  0  0  0  0  0
    0.4998    0.8496    0.0000 O   0  0  0  0  0  0  0  0  0  0  0  0
    1.4994    0.8496    0.0000 C   0  0  0  0  0  0  0  0  0  0  0  0
    1.9992    1.7493    0.0000 N   0  0  0  0  0  0  0  0  0  0  0  0
    1.9992    0.0000    0.0000 C   0  0  0  0  0  0  0  0  0  0  0  0
    2.9988    1.7493    0.0000 C   0  0  0  0  0  0  0  0  0  0  0  0
    2.9988    0.0000    0.0000 C   0  0  0  0  0  0  0  0  0  0  0  0
    3.4985    2.5989    0.0000 Cl  0  0  0  0  0  0  0  0  0  0  0  0
    3.4985    0.8496    0.0000 C   0  0  0  0  0  0  0  0  0  0  0  0
  1  2  1  0  0  0  0 
  2  3  1  0  0  0  0 
  4  3  2  0  0  0  0 
  3  5  1  0  0  0  0 
  6  4  1  0  0  0  0 
  5  7  2  0  0  0  0 
  6  8  1  0  0  0  0 
  9  6  2  0  0  0  0 
  7  9  1  0  0  0  0 
M  END
> <Name>
PYRIDINE, 2-CHLORO-6-METHOXY-

> <Source>
NIST2DMolFile

> <Tox>
185.5

> <CAS>
17228-64-7

$$$$

  CDK

 10  9  0  0  0  0  0  0  0  0999 V2000
    0.9457    2.2925    1.9787 C   0  0  0  0  0  0  0  0  0  0  0  0
    2.1337    1.5835    2.5889 C   0  0  0  0  0  0  0  0  0  0  0  0
    3.4454    2.1459    2.0663 C   0  0  0  0  0  0  0  0  0  0  0  0
    4.6400    1.4558    2.7070 C   0  0  0  0  0  0  0  0  0  0  0  0
    5.9843    1.7899    2.0310 C   0  0  0  0  0  0  0  0  0  0  0  0
    7.1019    1.0674    2.8113 C   0  0  0  0  0  0  0  0  0  0  0  0
    5.9389    1.2969    0.5840 C   0  0  0  0  0  0  0  0  0  0  0  0
    6.2812    3.3010    2.0377 C   0  0  0  0  0  0  0  0  0  0  0  0
    8.4631    1.1896    2.1618 C   0  0  0  0  0  0  0  0  0  0  0  0
    6.2342    3.9214    3.4172 C   0  0  0  0  0  0  0  0  0  0  0  0
  1  2  1  0  0  0  0 
  2  3  1  0  0  0  0 
  3  4  1  0  0  0  0 
  4  5  1  0  0  0  0 
  5  6  1  0  0  0  0 
  5  7  1  0  0  0  0 
  5  8  1  0  0  0  0 
  6  9  1  0  0  0  0 
  8 10  1  0  0  0  0 
M  END
> <Name>
3-ETHYL-3-METHYLHEPTANE

> <Source>
NIST3DMolFile

> <Tox>
163.8

> <CAS>
17302-01-1

$$$$

  CDK

 10  9  0  0  0  0  0  0  0  0999 V2000
    0.0000    2.3103    0.0000 C   0  0  0  0  0  0  0  0  0  0  0  0
    0.9755    2.3103    0.0000 C   0  0  0  0  0  0  0  0  0  0  0  0
    1.5402    1.4375    0.0000 C   0  0  0  0  0  0  0  0  0  0  0  0
    2.4644    1.4375    0.0000 C   0  0  0  0  0  0  0  0  0  0  0  0
    3.4912    1.4375    0.0000 C   0  0  0  0  0  0  0  0  0  0  0  0
    2.4644    2.4644    0.0000 C   0  0  0  0  0  0  0  0  0  0  0  0
    2.4644    0.5134    0.0000 C   0  0  0  0  0  0  0  0  0  0  0  0
    4.0046    2.3617    0.0000 C   0  0  0  0  0  0  0  0  0  0  0  0
    1.6429    2.9778    0.0000 C   0  0  0  0  0  0  0  0  0  0  0  0
    3.3885    0.0000    0.0000 C   0  0  0  0  0  0  0  0  0  0  0  0
  1  2  1  0  0  0  0 
  2  3  1  0  0  0  0 
  3  4  1  0  0  0  0 
  4  5  1  0  0  0  0 
  4  6  1  0  0  0  0 
  4  7  1  0  0  0  0 
  5  8  1  0  0  0  0 
  6  9  1  0  0  0  0 
  7 10  1  0  0  0  0 
M  END
> <Name>
3,3-DIETHYLHEXANE

> <Source>
NIST2DMolFile

> <Tox>
166.3

> <CAS>
17302-02-2

$$$$

  CDK

  8  8  0  0  0  0  0  0  0  0999 V2000
    4.1788    3.1187    1.3937 C   0  0  0  0  0  0  0  0  0  0  0  0
    4.5636    1.6927    1.0144 C   0  0  0  0  0  0  0  0  0  0  0  0
    2.7584    3.0761    1.9393 C   0  0  0  0  0  0  0  0  0  0  0  0
    3.2911    0.8503    0.9956 C   0  0  0  0  0  0  0  0  0  0  0  0
    2.1159    1.7742    1.3943 C   0  0  0  0  0  0  0  0  0  0  0  0
    1.2801    1.1545    2.4214 C   0  0  0  0  0  0  0  0  0  0  0  0
    1.3552    2.0108    0.2161 O   0  0  0  0  0  0  0  0  0  0  0  0
    0.6041    0.6437    3.2584 C   0  0  0  0  0  0  0  0  0  0  0  0
  1  2  1  0  0  0  0 
  3  1  1  0  0  0  0 
  2  4  1  0  0  0  0 
  5  3  1  0  0  0  0 
  4  5  1  0  0  0  0 
  5  6  1  0  0  0  0 
  5  7  1  0  0  0  0 
  6  8  3  0  0  0  0 
M  END
> <Name>
Cyclopentanol, 1-ethynyl-

> <Source>
NIST3DMolFile

> <Tox>
157.5

> <CAS>
17356-19-3

$$$$

  CDK

  8  7  0  0  0  0  0  0  0  0999 V2000
    1.2078    2.0824    0.0000 O   0  0  0  0  0  0  0  0  0  0  0  0
    1.2078    0.7080    0.0000 C   0  0  0  0  0  0  0  0  0  0  0  0
    0.0000    0.0000    0.0000 Cl  0  0  0  0  0  0  0  0  0  0  0  0
    2.4156    0.0000    0.0000 O   0  0  0  0  0  0  0  0  0  0  0  0
    3.6233    0.7080    0.0000 C   0  0  0  0  0  0  0  0  0  0  0  0
    4.8311    0.0000    0.0000 C   0  0  0  0  0  0  0  0  0  0  0  0
    3.6233    1.9574    0.0000 C   0  0  0  0  0  0  0  0  0  0  0  0
    6.0389    0.7080    0.0000 C   0  0  0  0  0  0  0  0  0  0  0  0
  1  2  2  0  0  0  0 
  2  3  1  0  0  0  0 
  2  4  1  0  0  0  0 
  4  5  1  0  0  0  0 
  5  6  1  0  0  0  0 
  5  7  1  0  0  0  0 
  6  8  1  0  0  0  0 
M  END
> <Name>
sec-Butyl Chloroformate

> <Source>
IndexNet2DMolFile

> <Tox>
126

> <CAS>
17462-58-7

$$$$

  CDK

  6  5  0  0  0  0  0  0  0  0999 V2000
    2.0359    1.0180    0.0000 S   0  0  0  0  0  0  0  0  0  0  0  0
    0.9671    1.0180    0.0000 C   0  0  0  0  0  0  0  0  0  0  0  0
    2.4940    0.1527    0.0000 F   0  0  0  0  0  0  0  0  0  0  0  0
    0.9671    1.9850    0.0000 F   0  0  0  0  0  0  0  0  0  0  0  0
    0.9671    0.0000    0.0000 F   0  0  0  0  0  0  0  0  0  0  0  0
    0.0000    1.0180    0.0000 F   0  0  0  0  0  0  0  0  0  0  0  0
  1  2  1  0  0  0  0 
  1  3  1  0  0  0  0 
  2  4  1  0  0  0  0 
  2  5  1  0  0  0  0 
  2  6  1  0  0  0  0 
M  END
> <Name>
METHANESULFENYL FLUORIDE, TRIFLUORO-

> <Source>
NIST2DMolFile

> <Tox>
147.5

> <CAS>
17742-04-0

$$$$

  CDK

 12 13  0  0  0  0  0  0  0  0999 V2000
    3.6380    3.7779    0.0000 C   0  0  0  0  0  0  0  0  0  0  0  0
    3.6380    2.3787    0.0000 C   0  0  0  0  0  0  0  0  0  0  0  0
    2.4253    4.4775    0.0000 C   0  0  0  0  0  0  0  0  0  0  0  0
    2.4253    1.6791    0.0000 C   0  0  0  0  0  0  0  0  0  0  0  0
    4.8506    1.6791    0.0000 C   0  0  0  0  0  0  0  0  0  0  0  0
    1.2127    3.7779    0.0000 C   0  0  0  0  0  0  0  0  0  0  0  0
    1.2127    2.3787    0.0000 C   0  0  0  0  0  0  0  0  0  0  0  0
    6.1099    2.2388    0.0000 O   0  0  0  0  0  0  0  0  0  0  0  0
    4.9906    0.2798    0.0000 O   0  0  0  0  0  0  0  0  0  0  0  0
    0.0000    1.6791    0.0000 Br  0  0  0  0  0  0  0  0  0  0  0  0
    7.0428    1.2127    0.0000 C   0  0  0  0  0  0  0  0  0  0  0  0
    6.3431    0.0000    0.0000 C   0  0  0  0  0  0  0  0  0  0  0  0
  1  2  2  0  0  0  0 
  1  3  1  0  0  0  0 
  2  4  1  0  0  0  0 
  2  5  1  0  0  0  0 
  3  6  2  0  0  0  0 
  4  7  2  0  0  0  0 
  5  8  1  0  0  0  0 
  5  9  1  0  0  0  0 
  6  7  1  0  0  0  0 
  7 10  1  0  0  0  0 
  8 11  1  0  0  0  0 
  9 12  1  0  0  0  0 
 11 12  1  0  0  0  0 
M  END
> <Name>
2-(3-Bromo-phenyl)-[1,3]dioxolane

> <Source>
IndexNet2DMolFile

> <Tox>
132.5

> <CAS>
17789-14-9

$$$$

  CDK

 15 14  0  0  0  0  0  0  0  0999 V2000
    0.0478    0.0265   -0.1891 Si  0  0  0  0  0  0  0  0  0  0  0  0
   -0.9415   -1.1414    0.4993 O   0  0  0  0  0  0  0  0  0  0  0  0
    1.6285   -0.2978    0.2724 O   0  0  0  0  0  0  0  0  0  0  0  0
   -0.3970    1.5373    0.3900 O   0  0  0  0  0  0  0  0  0  0  0  0
   -0.0999   -0.0110   -2.0192 C   0  0  0  0  0  0  0  0  0  0  0  0
   -0.7444   -2.5110    0.1761 C   0  0  0  0  0  0  0  0  0  0  0  0
    2.6789    0.5526   -0.1663 C   0  0  0  0  0  0  0  0  0  0  0  0
   -1.7090    2.0230    0.1420 C   0  0  0  0  0  0  0  0  0  0  0  0
   -1.1928   -0.3743   -2.6980 C   0  0  0  0  0  0  0  0  0  0  0  0
    0.6622   -2.9236    0.5820 C   0  0  0  0  0  0  0  0  0  0  0  0
   -1.8046   -3.3482    0.8754 C   0  0  0  0  0  0  0  0  0  0  0  0
    2.4229    1.9650    0.3370 C   0  0  0  0  0  0  0  0  0  0  0  0
    4.0077    0.0055    0.3322 C   0  0  0  0  0  0  0  0  0  0  0  0
   -2.7209    1.0687    0.7575 C   0  0  0  0  0  0  0  0  0  0  0  0
   -1.8380    3.4287    0.7087 C   0  0  0  0  0  0  0  0  0  0  0  0
  1  2  1  0  0  0  0 
  1  3  1  0  0  0  0 
  1  4  1  0  0  0  0 
  1  5  1  0  0  0  0 
  2  6  1  0  0  0  0 
  3  7  1  0  0  0  0 
  4  8  1  0  0  0  0 
  5  9  2  0  0  0  0 
  6 10  1  0  0  0  0 
  6 11  1  0  0  0  0 
  7 12  1  0  0  0  0 
  7 13  1  0  0  0  0 
  8 14  1  0  0  0  0 
  8 15  1  0  0  0  0 
M  END
> <Name>
Silane, ethenyltris(1-methylethoxy)-

> <Source>
Chemidplus3DMolFile

> <Tox>
179.5

> <CAS>
18023-33-1

$$$$

  CDK

  8  7  0  0  0  0  0  0  0  0999 V2000
    0.0000    0.4092    0.0000 C   0  0  0  0  0  0  0  0  0  0  0  0
    0.8695    0.9206    0.0000 C   0  0  0  0  0  0  0  0  0  0  0  0
    1.7390    0.4092    0.0000 C   0  0  0  0  0  0  0  0  0  0  0  0
    0.8695    1.8924    0.0000 C   0  0  0  0  0  0  0  0  0  0  0  0
    2.6084    0.9206    0.0000 Si  0  0  0  0  0  0  0  0  0  0  0  0
    2.0970    1.7390    0.0000 Cl  0  0  0  0  0  0  0  0  0  0  0  0
    3.1199    0.0000    0.0000 Cl  0  0  0  0  0  0  0  0  0  0  0  0
    3.4779    1.3809    0.0000 Cl  0  0  0  0  0  0  0  0  0  0  0  0
  1  2  1  0  0  0  0 
  2  3  1  0  0  0  0 
  2  4  1  0  0  0  0 
  3  5  1  0  0  0  0 
  5  6  1  0  0  0  0 
  5  7  1  0  0  0  0 
  5  8  1  0  0  0  0 
M  END
> <Name>
Silane, trichloro(2-methylpropyl)-

> <Source>
NIST2DMolFile

> <Tox>
143.3

> <CAS>
18169-57-8

$$$$

  CDK

  6  5  0  0  0  0  0  0  0  0999 V2000
    2.0177    1.0088    0.0000 C   0  0  0  0  0  0  0  0  0  0  0  0
    0.9584    1.0088    0.0000 Si  0  0  0  0  0  0  0  0  0  0  0  0
    2.4716    0.1009    0.0000 Br  0  0  0  0  0  0  0  0  0  0  0  0
    0.9584    1.9672    0.0000 C   0  0  0  0  0  0  0  0  0  0  0  0
    0.9584    0.0000    0.0000 C   0  0  0  0  0  0  0  0  0  0  0  0
    0.0000    1.0088    0.0000 C   0  0  0  0  0  0  0  0  0  0  0  0
  1  2  1  0  0  0  0 
  1  3  1  0  0  0  0 
  2  4  1  0  0  0  0 
  2  5  1  0  0  0  0 
  2  6  1  0  0  0  0 
M  END
> <Name>
SILANE, (BROMOMETHYL)TRIMETHYL-

> <Source>
NIST2DMolFile

> <Tox>
116.5

> <CAS>
18243-41-9

$$$$

  CDK

  7  6  0  0  0  0  0  0  0  0999 V2000
    0.0000    0.9669    0.0000 C   0  0  0  0  0  0  0  0  0  0  0  0
    0.8651    1.4758    0.0000 C   0  0  0  0  0  0  0  0  0  0  0  0
    1.7811    0.9669    0.0000 C   0  0  0  0  0  0  0  0  0  0  0  0
    0.8651    2.4935    0.0000 Cl  0  0  0  0  0  0  0  0  0  0  0  0
    2.5953    1.4758    0.0000 C   0  0  0  0  0  0  0  0  0  0  0  0
    1.7811    0.0000    0.0000 Cl  0  0  0  0  0  0  0  0  0  0  0  0
    3.4604    0.9669    0.0000 Cl  0  0  0  0  0  0  0  0  0  0  0  0
  1  2  1  0  0  0  0 
  2  3  1  0  0  0  0 
  2  4  1  0  0  0  0 
  3  5  1  0  0  0  0 
  3  6  1  0  0  0  0 
  5  7  1  0  0  0  0 
M  END
> <Name>
1,2,3-TRICHLOROBUTANE

> <Source>
NIST2DMolFile

> <Tox>
168

> <CAS>
18338-40-4

$$$$

  CDK

  8  8  0  0  0  0  0  0  0  0999 V2000
    2.3040   -2.6588    0.0000 N   0  0  0  0  0  0  0  0  0  0  0  0
    1.1520   -1.9953    0.0000 C   0  0  0  0  0  0  0  0  0  0  0  0
    3.4560   -1.9953    0.0000 C   0  0  0  0  0  0  0  0  0  0  0  0
    0.0000   -2.6588    0.0000 C   0  0  0  0  0  0  0  0  0  0  0  0
    1.1520   -0.6635    0.0000 C   0  0  0  0  0  0  0  0  0  0  0  0
    3.4560   -0.6635    0.0000 C   0  0  0  0  0  0  0  0  0  0  0  0
    4.6080   -2.6588    0.0000 Cl  0  0  0  0  0  0  0  0  0  0  0  0
    2.3040   -0.0000    0.0000 C   0  0  0  0  0  0  0  0  0  0  0  0
  1  2  2  0  0  0  0 
  1  3  1  0  0  0  0 
  2  4  1  0  0  0  0 
  2  5  1  0  0  0  0 
  6  3  2  0  0  0  0 
  3  7  1  0  0  0  0 
  5  8  2  0  0  0  0 
  8  6  1  0  0  0  0 
M  END
> <Name>
6-Chloro-2-picoline

> <Source>
DSSTox2DMolFile

> <Tox>
183.5

> <CAS>
18368-63-3

$$$$

  CDK

  8  7  0  0  0  0  0  0  0  0999 V2000
    1.5005    2.4509    0.0000 Cl  0  0  0  0  0  0  0  0  0  0  0  0
    1.5005    1.4005    0.0000 C   0  0  0  0  0  0  0  0  0  0  0  0
    2.5009    1.4005    0.0000 C   0  0  0  0  0  0  0  0  0  0  0  0
    1.5005    0.4502    0.0000 C   0  0  0  0  0  0  0  0  0  0  0  0
    0.5002    1.4005    0.0000 C   0  0  0  0  0  0  0  0  0  0  0  0
    2.9510    2.3008    0.0000 Cl  0  0  0  0  0  0  0  0  0  0  0  0
    2.3508    0.0000    0.0000 Cl  0  0  0  0  0  0  0  0  0  0  0  0
    0.0000    2.3008    0.0000 Cl  0  0  0  0  0  0  0  0  0  0  0  0
  1  2  1  0  0  0  0 
  2  3  1  0  0  0  0 
  2  4  1  0  0  0  0 
  2  5  1  0  0  0  0 
  3  6  1  0  0  0  0 
  4  7  1  0  0  0  0 
  5  8  1  0  0  0  0 
M  END
> <Name>
2-(chloromethyl)-1,2,3-trichloropropane

> <Source>
NIST2DMolFile

> <Tox>
211

> <CAS>
18963-00-3

$$$$

  CDK

  9  8  0  0  0  0  0  0  0  0999 V2000
    0.9815    2.6515    0.7337 C   0  0  0  0  0  0  0  0  0  0  0  0
    2.1079    2.7719    1.7498 C   0  0  0  0  0  0  0  0  0  0  0  0
    3.4664    2.7615    1.0401 C   0  0  0  0  0  0  0  0  0  0  0  0
    1.9165    4.0314    2.5790 C   0  0  0  0  0  0  0  0  0  0  0  0
    4.6034    2.0513    1.8132 C   0  0  0  0  0  0  0  0  0  0  0  0
    5.8763    2.0730    0.9252 C   0  0  0  0  0  0  0  0  0  0  0  0
    4.8124    2.7815    3.0155 O   0  0  0  0  0  0  0  0  0  0  0  0
    4.2109    0.6031    2.1384 C   0  0  0  0  0  0  0  0  0  0  0  0
    7.1041    1.5240    1.6180 C   0  0  0  0  0  0  0  0  0  0  0  0
  1  2  1  0  0  0  0 
  2  3  1  0  0  0  0 
  2  4  1  0  0  0  0 
  3  5  1  0  0  0  0 
  5  6  1  0  0  0  0 
  5  7  1  0  0  0  0 
  5  8  1  0  0  0  0 
  6  9  1  0  0  0  0 
M  END
> <Name>
3,5-Dimethyl-3-hexanol

> <Source>
NIST3DMolFile

> <Tox>
152

> <CAS>
19113-78-1

$$$$

  CDK

 11 10  0  0  0  0  0  0  0  0999 V2000
    2.4946    0.2700    0.0000 C   0  0  0  0  0  0  0  0  0  0  0  0
    1.7150    0.5401    0.0000 O   0  0  0  0  0  0  0  0  0  0  0  0
    1.0914    0.0000    0.0000 C   0  0  0  0  0  0  0  0  0  0  0  0
    1.2473   -0.8101    0.0000 O   0  0  0  0  0  0  0  0  0  0  0  0
    0.3118    0.2700    0.0000 C   0  0  0  0  0  0  0  0  0  0  0  0
    0.1559    1.0802    0.0000 Cl  0  0  0  0  0  0  0  0  0  0  0  0
   -0.3118   -0.2700    0.0000 C   0  0  0  0  0  0  0  0  0  0  0  0
   -1.0914    0.0000    0.0000 C   0  0  0  0  0  0  0  0  0  0  0  0
   -1.2473    0.8101    0.0000 O   0  0  0  0  0  0  0  0  0  0  0  0
   -1.7150   -0.5401    0.0000 O   0  0  0  0  0  0  0  0  0  0  0  0
   -2.4946   -0.2700    0.0000 C   0  0  0  0  0  0  0  0  0  0  0  0
  1  2  1  0  0  0  0 
  2  3  1  0  0  0  0 
  3  4  2  0  0  0  0 
  3  5  1  0  0  0  0 
  5  6  1  0  0  0  0 
  5  7  2  0  0  0  0 
  7  8  1  0  0  0  0 
  8  9  2  0  0  0  0 
  8 10  1  0  0  0  0 
 10 11  1  0  0  0  0 
M  END
> <Name>
2-Chloro-but-2-enedioic acid dimethyl ester

> <Source>
Smiles

> <Tox>
224

> <CAS>
19393-45-4

$$$$

  CDK

 10  9  0  0  0  0  0  0  0  0999 V2000
    0.6489    0.9061    4.5828 C   0  0  0  0  0  0  0  0  0  0  0  0
    1.5595    2.0838    4.2804 C   0  0  0  0  0  0  0  0  0  0  0  0
    2.4543    1.7704    3.0790 C   0  0  0  0  0  0  0  0  0  0  0  0
    2.4003    2.4309    5.4990 C   0  0  0  0  0  0  0  0  0  0  0  0
    3.2373    2.9971    2.6417 C   0  0  0  0  0  0  0  0  0  0  0  0
    4.3080    2.6637    1.5898 C   0  0  0  0  0  0  0  0  0  0  0  0
    3.7426    2.4779    0.3113 O   0  0  0  0  0  0  0  0  0  0  0  0
    5.4369    3.7272    1.5553 C   0  0  0  0  0  0  0  0  0  0  0  0
    6.1593    3.7796    2.8893 C   0  0  0  0  0  0  0  0  0  0  0  0
    4.8970    5.0974    1.1787 C   0  0  0  0  0  0  0  0  0  0  0  0
  1  2  1  0  0  0  0 
  2  3  1  0  0  0  0 
  2  4  1  0  0  0  0 
  3  5  1  0  0  0  0 
  5  6  1  0  0  0  0 
  6  7  1  0  0  0  0 
  6  8  1  0  0  0  0 
  8  9  1  0  0  0  0 
  8 10  1  0  0  0  0 
M  END
> <Name>
2,6-DIMETHYL-3-HEPTANOL

> <Source>
NIST3DMolFile

> <Tox>
175

> <CAS>
19549-73-6

$$$$

  CDK

  9  8  0  0  0  0  0  0  0  0999 V2000
    1.7021    1.4018    0.0000 C   0  0  0  0  0  0  0  0  0  0  0  0
    0.8511    0.9011    0.0000 C   0  0  0  0  0  0  0  0  0  0  0  0
    2.6033    0.9011    0.0000 C   0  0  0  0  0  0  0  0  0  0  0  0
    1.7021    2.4030    0.0000 C   0  0  0  0  0  0  0  0  0  0  0  0
    0.3504    1.7522    0.0000 C   0  0  0  0  0  0  0  0  0  0  0  0
    1.3517    0.0000    0.0000 C   0  0  0  0  0  0  0  0  0  0  0  0
    0.0000    0.4005    0.0000 O   0  0  0  0  0  0  0  0  0  0  0  0
    3.4544    1.4018    0.0000 C   0  0  0  0  0  0  0  0  0  0  0  0
    4.3054    0.9011    0.0000 C   0  0  0  0  0  0  0  0  0  0  0  0
  1  2  1  0  0  0  0 
  1  3  1  0  0  0  0 
  1  4  1  0  0  0  0 
  2  5  1  0  0  0  0 
  2  6  1  0  0  0  0 
  2  7  1  0  0  0  0 
  3  8  1  0  0  0  0 
  8  9  1  0  0  0  0 
M  END
> <Name>
2-HEXANOL, 2,3-DIMETHYL-

> <Source>
NIST2DMolFile

> <Tox>
160

> <CAS>
19550-03-9

$$$$

  CDK

  9  8  0  0  0  0  0  0  0  0999 V2000
    2.6213    2.1423    2.2266 C   0  0  0  0  0  0  0  0  0  0  0  0
    4.1129    2.3831    2.5315 C   0  0  0  0  0  0  0  0  0  0  0  0
    1.9653    3.3329    1.5234 C   0  0  0  0  0  0  0  0  0  0  0  0
    2.4306    0.8606    1.4308 C   0  0  0  0  0  0  0  0  0  0  0  0
    4.9603    2.5437    1.2694 C   0  0  0  0  0  0  0  0  0  0  0  0
    4.2907    3.5828    3.4482 C   0  0  0  0  0  0  0  0  0  0  0  0
    0.4631    3.3434    1.6949 C   0  0  0  0  0  0  0  0  0  0  0  0
    5.8335    1.3640    0.9272 C   0  0  0  0  0  0  0  0  0  0  0  0
    4.9584    3.5508    0.5884 O   0  0  0  0  0  0  0  0  0  0  0  0
  1  2  1  0  0  0  0 
  1  3  1  0  0  0  0 
  1  4  1  0  0  0  0 
  2  5  1  0  0  0  0 
  2  6  1  0  0  0  0 
  3  7  1  0  0  0  0 
  5  8  1  0  0  0  0 
  5  9  2  0  0  0  0 
M  END
> <Name>
2-HEXANONE, 3,4-DIMETHYL-

> <Source>
NIST3DMolFile

> <Tox>
158

> <CAS>
19550-10-8

$$$$

  CDK

  5  4  0  0  0  0  0  0  0  0999 V2000
    2.3056   -0.0000    0.0000 O   0  0  0  0  0  0  0  0  0  0  0  0
    2.3056   -1.3308    0.0000 C   0  0  0  0  0  0  0  0  0  0  0  0
    1.1511   -1.9945    0.0000 C   0  0  0  0  0  0  0  0  0  0  0  0
    3.4567   -1.9945    0.0000 C   0  0  0  0  0  0  0  0  0  0  0  0
    0.0000   -1.3308    0.0000 Br  0  0  0  0  0  0  0  0  0  0  0  0
  1  2  1  0  0  0  0 
  2  3  1  0  0  0  0 
  2  4  1  0  0  0  0 
  3  5  1  0  0  0  0 
M  END
> <Name>
2-Propanol, 1-bromo-

> <Source>
DSSTox2DMolFile

> <Tox>
146.5

> <CAS>
19686-73-8

$$$$

  CDK

 15 16  0  0  0  0  0  0  0  0999 V2000
   -0.0013    1.6317    0.0001 O   0  0  0  0  0  0  0  0  0  0  0  0
   -1.1622    0.9278    0.0944 C   0  0  0  0  0  0  0  0  0  0  0  0
    1.1800    0.9153   -0.0958 C   0  0  0  0  0  0  0  0  0  0  0  0
   -1.3866   -0.1635   -0.7449 C   0  0  0  0  0  0  0  0  0  0  0  0
   -2.1282    1.2984    1.0300 C   0  0  0  0  0  0  0  0  0  0  0  0
    1.3839   -0.1637    0.7451 C   0  0  0  0  0  0  0  0  0  0  0  0
    2.1257    1.2981   -1.0298 C   0  0  0  0  0  0  0  0  0  0  0  0
   -2.5770   -0.8844   -0.6484 C   0  0  0  0  0  0  0  0  0  0  0  0
   -3.3185    0.5774    1.1266 C   0  0  0  0  0  0  0  0  0  0  0  0
    2.5742   -0.8846    0.6486 C   0  0  0  0  0  0  0  0  0  0  0  0
    3.3158    0.5770   -1.1262 C   0  0  0  0  0  0  0  0  0  0  0  0
   -3.5429   -0.5138    0.2873 C   0  0  0  0  0  0  0  0  0  0  0  0
   -2.8173   -2.0507   -1.5460 C   0  0  0  0  0  0  0  0  0  0  0  0
    3.5401   -0.5142   -0.2871 C   0  0  0  0  0  0  0  0  0  0  0  0
    2.8143   -2.0510    1.5462 C   0  0  0  0  0  0  0  0  0  0  0  0
  1  2  1  0  0  0  0 
  1  3  1  0  0  0  0 
  2  4  1  0  0  0  0 
  2  5  2  0  0  0  0 
  3  6  1  0  0  0  0 
  3  7  2  0  0  0  0 
  8  4  2  0  0  0  0 
  5  9  1  0  0  0  0 
 10  6  2  0  0  0  0 
  7 11  1  0  0  0  0 
  8 12  1  0  0  0  0 
  8 13  1  0  0  0  0 
 12  9  2  0  0  0  0 
 10 14  1  0  0  0  0 
 10 15  1  0  0  0  0 
 14 11  2  0  0  0  0 
M  END
> <Name>
3,3'-Dimethyl diphenylether

> <Source>
Chemidplus3DMolFile

> <Tox>
284

> <CAS>
19814-71-2

$$$$

  CDK

  9  8  0  0  0  0  0  0  0  0999 V2000
    4.6495    1.9292    2.4765 C   0  0  0  0  0  0  0  0  0  0  0  0
    4.6269    3.0395    1.4303 C   0  0  0  0  0  0  0  0  0  0  0  0
    3.4334    1.0252    2.3411 C   0  0  0  0  0  0  0  0  0  0  0  0
    5.6584    4.0145    1.6607 C   0  0  0  0  0  0  0  0  0  0  0  0
    2.1442    1.7699    2.6545 C   0  0  0  0  0  0  0  0  0  0  0  0
    6.5105    4.8275    1.8474 C   0  0  0  0  0  0  0  0  0  0  0  0
    0.9243    0.9330    2.3487 C   0  0  0  0  0  0  0  0  0  0  0  0
    7.5386    5.8087    2.0759 C   0  0  0  0  0  0  0  0  0  0  0  0
    8.5932    5.7833    0.9871 C   0  0  0  0  0  0  0  0  0  0  0  0
  1  2  1  0  0  0  0 
  1  3  1  0  0  0  0 
  2  4  1  0  0  0  0 
  3  5  1  0  0  0  0 
  4  6  3  0  0  0  0 
  5  7  1  0  0  0  0 
  6  8  1  0  0  0  0 
  8  9  1  0  0  0  0 
M  END
> <Name>
3-NONYNE

> <Source>
NIST3DMolFile

> <Tox>
157.1

> <CAS>
20184-89-8

$$$$

  CDK

  9  8  0  0  0  0  0  0  0  0999 V2000
    6.1499    0.9765    2.4367 C   0  0  0  0  0  0  0  0  0  0  0  0
    4.9381    1.7477    2.3503 C   0  0  0  0  0  0  0  0  0  0  0  0
    7.3497    1.8580    2.7671 C   0  0  0  0  0  0  0  0  0  0  0  0
    3.9333    2.3863    2.2805 C   0  0  0  0  0  0  0  0  0  0  0  0
    8.6387    1.0560    2.8653 C   0  0  0  0  0  0  0  0  0  0  0  0
    2.7226    3.1598    2.1994 C   0  0  0  0  0  0  0  0  0  0  0  0
    9.1734    0.6417    1.5124 C   0  0  0  0  0  0  0  0  0  0  0  0
    1.9068    2.7962    0.9636 C   0  0  0  0  0  0  0  0  0  0  0  0
    0.6397    3.6175    0.8870 C   0  0  0  0  0  0  0  0  0  0  0  0
  1  2  1  0  0  0  0 
  1  3  1  0  0  0  0 
  2  4  3  0  0  0  0 
  3  5  1  0  0  0  0 
  4  6  1  0  0  0  0 
  5  7  1  0  0  0  0 
  6  8  1  0  0  0  0 
  8  9  1  0  0  0  0 
M  END
> <Name>
4-NONYNE

> <Source>
NIST3DMolFile

> <Tox>
152

> <CAS>
20184-91-2

$$$$

  CDK

  6  5  0  0  0  0  0  0  0  0999 V2000
    5.0213    0.6363    2.5203 C   0  0  0  0  0  0  0  0  0  0  0  0
    4.4357    0.5422    1.3271 C   0  0  0  0  0  0  0  0  0  0  0  0
    3.1429    1.1385    1.0255 C   0  0  0  0  0  0  0  0  0  0  0  0
    2.4264    1.8093    1.9351 C   0  0  0  0  0  0  0  0  0  0  0  0
    1.0969    2.4070    1.6496 C   0  0  0  0  0  0  0  0  0  0  0  0
    0.9925    3.8122    2.2025 C   0  0  0  0  0  0  0  0  0  0  0  0
  1  2  2  0  0  0  0 
  2  3  1  0  0  0  0 
  3  4  2  0  0  0  0 
  4  5  1  0  0  0  0 
  5  6  1  0  0  0  0 
M  END
> <Name>
1,3-HEXADIENE (TRANS)

> <Source>
NIST3DMolFile

> <Tox>
73.2

> <CAS>
20237-34-7

$$$$

  CDK

 10  9  0  0  0  0  0  0  0  0999 V2000
    0.1023    0.9418    0.1565 C   0  0  0  0  0  0  0  0  0  0  0  0
   -0.9940   -0.0479   -0.4085 C   0  0  0  0  0  0  0  0  0  0  0  0
    1.4299    0.2133    0.5445 C   0  0  0  0  0  0  0  0  0  0  0  0
   -0.4335    1.6692    1.4138 C   0  0  0  0  0  0  0  0  0  0  0  0
    0.4709    2.0276   -0.8812 C   0  0  0  0  0  0  0  0  0  0  0  0
   -1.3047   -1.2174    0.5608 C   0  0  0  0  0  0  0  0  0  0  0  0
   -2.3003    0.6608   -0.8139 C   0  0  0  0  0  0  0  0  0  0  0  0
    2.0651   -0.6449   -0.5559 C   0  0  0  0  0  0  0  0  0  0  0  0
   -2.3237   -2.2147    0.0200 C   0  0  0  0  0  0  0  0  0  0  0  0
    3.2880   -1.3878   -0.0362 C   0  0  0  0  0  0  0  0  0  0  0  0
  1  2  1  0  0  0  0 
  1  3  1  0  0  0  0 
  1  4  1  0  0  0  0 
  1  5  1  0  0  0  0 
  2  6  1  0  0  0  0 
  2  7  1  0  0  0  0 
  3  8  1  0  0  0  0 
  6  9  1  0  0  0  0 
  8 10  1  0  0  0  0 
M  END
> <Name>
3,4,4-TRIMETHYLHEPTANE

> <Source>
Chemidplus3DMolFile

> <Tox>
161.1

> <CAS>
20278-88-0

$$$$

  CDK

 10  9  0  0  0  0  0  0  0  0999 V2000
   -0.0177    0.4701    0.3776 C   0  0  0  0  0  0  0  0  0  0  0  0
    1.4313    0.4999   -0.2209 C   0  0  0  0  0  0  0  0  0  0  0  0
   -1.0907   -0.1099   -0.6060 C   0  0  0  0  0  0  0  0  0  0  0  0
   -0.4200    1.8572    0.9068 C   0  0  0  0  0  0  0  0  0  0  0  0
    1.8952   -0.8567   -0.8078 C   0  0  0  0  0  0  0  0  0  0  0  0
    2.4700    1.0051    0.7922 C   0  0  0  0  0  0  0  0  0  0  0  0
   -2.4874   -0.3281    0.0243 C   0  0  0  0  0  0  0  0  0  0  0  0
   -1.2563    0.7317   -1.8793 C   0  0  0  0  0  0  0  0  0  0  0  0
    1.9655   -2.0072    0.1873 C   0  0  0  0  0  0  0  0  0  0  0  0
   -2.4897   -1.2622    1.2257 C   0  0  0  0  0  0  0  0  0  0  0  0
  1  2  1  0  0  0  0 
  1  3  1  0  0  0  0 
  1  4  1  0  0  0  0 
  2  5  1  0  0  0  0 
  2  6  1  0  0  0  0 
  3  7  1  0  0  0  0 
  3  8  1  0  0  0  0 
  5  9  1  0  0  0  0 
  7 10  1  0  0  0  0 
M  END
> <Name>
Heptane, 3,4,5-trimethyl-

> <Source>
Chemidplus3DMolFile

> <Tox>
162.5

> <CAS>
20278-89-1

$$$$

  CDK

 10  9  0  0  0  0  0  0  0  0999 V2000
    0.0000    2.6846    0.0000 C   0  0  0  0  0  0  0  0  0  0  0  0
    1.0637    2.6846    0.0000 C   0  0  0  0  0  0  0  0  0  0  0  0
    1.5702    1.8235    0.0000 C   0  0  0  0  0  0  0  0  0  0  0  0
    2.5326    1.8235    0.0000 C   0  0  0  0  0  0  0  0  0  0  0  0
    1.0637    0.9624    0.0000 C   0  0  0  0  0  0  0  0  0  0  0  0
    2.9885    0.9624    0.0000 C   0  0  0  0  0  0  0  0  0  0  0  0
    4.0015    0.9624    0.0000 C   0  0  0  0  0  0  0  0  0  0  0  0
    5.0146    0.9624    0.0000 C   0  0  0  0  0  0  0  0  0  0  0  0
    4.0015    1.9754    0.0000 C   0  0  0  0  0  0  0  0  0  0  0  0
    4.0015    0.0000    0.0000 C   0  0  0  0  0  0  0  0  0  0  0  0
  1  2  1  0  0  0  0 
  2  3  1  0  0  0  0 
  3  4  1  0  0  0  0 
  3  5  1  0  0  0  0 
  4  6  1  0  0  0  0 
  6  7  1  0  0  0  0 
  7  8  1  0  0  0  0 
  7  9  1  0  0  0  0 
  7 10  1  0  0  0  0 
M  END
> <Name>
2,2,5-TRIMETHYLHEPTANE

> <Source>
NIST2DMolFile

> <Tox>
150.8

> <CAS>
20291-95-6

$$$$

  CDK

 14 13  0  0  0  0  0  0  0  0999 V2000
    1.1511   -3.3267    0.0000 C   0  0  0  0  0  0  0  0  0  0  0  0
    1.1511   -2.0029    0.0000 C   0  0  0  0  0  0  0  0  0  0  0  0
    0.0000   -1.3353    0.0000 O   0  0  0  0  0  0  0  0  0  0  0  0
    2.3022   -1.3353    0.0000 C   0  0  0  0  0  0  0  0  0  0  0  0
    3.4533   -2.0029    0.0000 O   0  0  0  0  0  0  0  0  0  0  0  0
    4.6044   -1.3353    0.0000 C   0  0  0  0  0  0  0  0  0  0  0  0
    4.6044   -0.0000    0.0000 C   0  0  0  0  0  0  0  0  0  0  0  0
    5.7556   -2.0029    0.0000 C   0  0  0  0  0  0  0  0  0  0  0  0
    6.9067   -1.3353    0.0000 O   0  0  0  0  0  0  0  0  0  0  0  0
    8.0578   -2.0029    0.0000 C   0  0  0  0  0  0  0  0  0  0  0  0
    8.0578   -3.3267    0.0000 C   0  0  0  0  0  0  0  0  0  0  0  0
    9.2089   -1.3353    0.0000 C   0  0  0  0  0  0  0  0  0  0  0  0
   10.3600   -2.0029    0.0000 O   0  0  0  0  0  0  0  0  0  0  0  0
   11.5111   -1.3353    0.0000 C   0  0  0  0  0  0  0  0  0  0  0  0
  1  2  1  0  0  0  0 
  2  3  1  0  0  0  0 
  2  4  1  0  0  0  0 
  4  5  1  0  0  0  0 
  5  6  1  0  0  0  0 
  6  7  1  0  0  0  0 
  6  8  1  0  0  0  0 
  8  9  1  0  0  0  0 
  9 10  1  0  0  0  0 
 10 11  1  0  0  0  0 
 10 12  1  0  0  0  0 
 12 13  1  0  0  0  0 
 13 14  1  0  0  0  0 
M  END
> <Name>
TRIPROPYLENE GLYCOL METHYL ETHER

> <Source>
DSSTox2DMolFile

> <Tox>
250

> <CAS>
20324-33-8

$$$$

  CDK

  6  5  0  0  0  0  0  0  0  0999 V2000
    1.2127    1.3992    0.0000 C   0  0  0  0  0  0  0  0  0  0  0  0
    2.4253    2.0988    0.0000 C   0  0  0  0  0  0  0  0  0  0  0  0
    0.0000    2.0988    0.0000 Cl  0  0  0  0  0  0  0  0  0  0  0  0
    1.2127    0.0000    0.0000 Cl  0  0  0  0  0  0  0  0  0  0  0  0
    3.6380    1.3992    0.0000 C   0  0  0  0  0  0  0  0  0  0  0  0
    2.4253    3.4981    0.0000 Cl  0  0  0  0  0  0  0  0  0  0  0  0
  1  2  2  0  0  0  0 
  1  3  1  0  0  0  0 
  1  4  1  0  0  0  0 
  2  5  1  0  0  0  0 
  2  6  1  0  0  0  0 
M  END
> <Name>
1,1,2-TRICHLOROPROPENE

> <Source>
IndexNet2DMolFile

> <Tox>
118

> <CAS>
21400-25-9

$$$$

  CDK

 12 13  0  0  0  0  0  0  0  0999 V2000
   -0.2691    0.3698    0.0000 C   0  0  0  0  0  0  0  0  0  0  0  0
   -0.9836    0.7823    0.0000 C   0  0  0  0  0  0  0  0  0  0  0  0
   -0.2691   -0.4552    0.0000 C   0  0  0  0  0  0  0  0  0  0  0  0
    0.4454    0.7823    0.0000 C   0  0  0  0  0  0  0  0  0  0  0  0
   -0.9836    1.6073    0.0000 C   0  0  0  0  0  0  0  0  0  0  0  0
   -1.6980    0.3698    0.0000 C   0  0  0  0  0  0  0  0  0  0  0  0
   -0.9836   -0.8677    0.0000 C   0  0  0  0  0  0  0  0  0  0  0  0
    0.4454   -0.8677    0.0000 C   0  0  0  0  0  0  0  0  0  0  0  0
    1.1599    0.3698    0.0000 C   0  0  0  0  0  0  0  0  0  0  0  0
   -1.6980   -0.4552    0.0000 C   0  0  0  0  0  0  0  0  0  0  0  0
    0.6892   -1.6559    0.0000 C   0  0  0  0  0  0  0  0  0  0  0  0
    1.1599   -0.4552    0.0000 C   0  0  0  0  0  0  0  0  0  0  0  0
  1  2  1  0  0  0  0 
  1  3  2  0  0  0  0 
  1  4  1  0  0  0  0 
  2  5  1  0  0  0  0 
  2  6  2  0  0  0  0 
  7  3  1  0  0  0  0 
  3  8  1  0  0  0  0 
  9  4  1  0  0  0  0 
  6 10  1  0  0  0  0 
 10  7  2  0  0  0  0 
  8 11  1  0  0  0  0 
  8 12  1  0  0  0  0 
 12  9  1  0  0  0  0 
M  END
> <Name>
1,5-Dimethyl-1,2,3,4-tetrahydro-naphthalene

> <Source>
Smiles

> <Tox>
239

> <CAS>
21564-91-0

$$$$

  CDK

 11 10  0  0  0  0  0  0  0  0999 V2000
   -2.1872   -0.9808    0.0000 O   0  0  0  0  0  0  0  0  0  0  0  0
   -1.4507   -0.4653    0.0000 C   0  0  0  0  0  0  0  0  0  0  0  0
   -0.7834    0.0788    0.0000 C   0  0  0  0  0  0  0  0  0  0  0  0
   -1.9021    0.2588    0.0000 C   0  0  0  0  0  0  0  0  0  0  0  0
   -0.1419    0.6393    0.0000 N   0  0  0  0  0  0  0  0  0  0  0  0
   -2.4820    0.8720    0.0000 C   0  0  0  0  0  0  0  0  0  0  0  0
    0.6325    0.3023    0.0000 C   0  0  0  0  0  0  0  0  0  0  0  0
    1.3831   -0.0742    0.0000 C   0  0  0  0  0  0  0  0  0  0  0  0
    1.7830    0.6767    0.0000 O   0  0  0  0  0  0  0  0  0  0  0  0
    2.1177   -0.4765    0.0000 C   0  0  0  0  0  0  0  0  0  0  0  0
    2.9177   -0.6796    0.0000 C   0  0  0  0  0  0  0  0  0  0  0  0
  1  2  1  0  0  0  0 
  2  3  1  0  0  0  0 
  2  4  1  0  0  0  0 
  3  5  1  0  0  0  0 
  4  6  1  0  0  0  0 
  5  7  1  0  0  0  0 
  7  8  1  0  0  0  0 
  8  9  1  0  0  0  0 
  8 10  1  0  0  0  0 
 10 11  1  0  0  0  0 
M  END
> <Name>
Di-sec-butanolamine

> <Source>
Smiles

> <Tox>
256

> <CAS>
21838-75-5

$$$$

  CDK

  7  6  0  0  0  0  0  0  0  0999 V2000
    1.7073    1.5065    0.0000 N   0  0  0  0  0  0  0  0  0  0  0  0
    0.8537    1.0043    0.0000 C   0  0  0  0  0  0  0  0  0  0  0  0
    2.6112    1.0043    0.0000 C   0  0  0  0  0  0  0  0  0  0  0  0
    0.8537    0.0000    0.0000 C   0  0  0  0  0  0  0  0  0  0  0  0
    0.0000    1.5065    0.0000 C   0  0  0  0  0  0  0  0  0  0  0  0
    3.4649    1.5065    0.0000 C   0  0  0  0  0  0  0  0  0  0  0  0
    4.3186    1.0043    0.0000 C   0  0  0  0  0  0  0  0  0  0  0  0
  1  2  1  0  0  0  0 
  1  3  1  0  0  0  0 
  2  4  1  0  0  0  0 
  2  5  1  0  0  0  0 
  3  6  1  0  0  0  0 
  6  7  1  0  0  0  0 
M  END
> <Name>
Isopropyl-propyl-amine

> <Source>
NIST2DMolFile

> <Tox>
96.9

> <CAS>
21968-17-2

$$$$

  CDK

  9  8  0  0  0  0  0  0  0  0999 V2000
    3.4369    1.4943    0.0000 O   0  0  0  0  0  0  0  0  0  0  0  0
    2.5902    0.9962    0.0000 C   0  0  0  0  0  0  0  0  0  0  0  0
    4.3335    1.0460    0.0000 N   0  0  0  0  0  0  0  0  0  0  0  0
    1.7434    1.4943    0.0000 C   0  0  0  0  0  0  0  0  0  0  0  0
    2.5902    0.0000    0.0000 C   0  0  0  0  0  0  0  0  0  0  0  0
    4.3335    0.0000    0.0000 O   0  0  0  0  0  0  0  0  0  0  0  0
    5.1803    1.5441    0.0000 O   0  0  0  0  0  0  0  0  0  0  0  0
    0.8468    0.9962    0.0000 C   0  0  0  0  0  0  0  0  0  0  0  0
    0.0000    1.4943    0.0000 C   0  0  0  0  0  0  0  0  0  0  0  0
  1  2  1  0  0  0  0 
  1  3  1  0  0  0  0 
  2  4  1  0  0  0  0 
  2  5  1  0  0  0  0 
  3  6  2  0  0  0  0 
  3  7  2  0  0  0  0 
  4  8  1  0  0  0  0 
  8  9  1  0  0  0  0 
M  END
> <Name>
ISOPENTYL NITRATE

> <Source>
NIST2DMolFile

> <Tox>
144

> <CAS>
21981-48-6

$$$$

  CDK

 14 14  0  0  0  0  0  0  0  0999 V2000
    6.3104    2.2586    1.9439 C   0  0  0  0  0  0  0  0  0  0  0  0
    6.1096    2.1795    3.3239 C   0  0  0  0  0  0  0  0  0  0  0  0
    5.2035    2.2715    1.0851 C   0  0  0  0  0  0  0  0  0  0  0  0
    7.6678    2.3338    1.3468 C   0  0  0  0  0  0  0  0  0  0  0  0
    4.8249    2.1214    3.8467 C   0  0  0  0  0  0  0  0  0  0  0  0
    3.9155    2.2090    1.5916 C   0  0  0  0  0  0  0  0  0  0  0  0
    7.9394    2.5682    0.1830 O   0  0  0  0  0  0  0  0  0  0  0  0
    8.6875    2.1171    2.2339 O   0  0  0  0  0  0  0  0  0  0  0  0
    3.7243    2.1377    2.9815 C   0  0  0  0  0  0  0  0  0  0  0  0
   10.0362    2.1671    1.7852 C   0  0  0  0  0  0  0  0  0  0  0  0
    2.4098    2.0612    3.3719 O   0  0  0  0  0  0  0  0  0  0  0  0
   10.4891    0.8652    1.1524 C   0  0  0  0  0  0  0  0  0  0  0  0
    2.1343    2.2037    4.7645 C   0  0  0  0  0  0  0  0  0  0  0  0
    0.8187    1.5000    5.0333 C   0  0  0  0  0  0  0  0  0  0  0  0
  1  2  2  0  0  0  0 
  3  1  1  0  0  0  0 
  1  4  1  0  0  0  0 
  2  5  1  0  0  0  0 
  6  3  2  0  0  0  0 
  4  7  2  0  0  0  0 
  4  8  1  0  0  0  0 
  5  9  2  0  0  0  0 
  9  6  1  0  0  0  0 
  8 10  1  0  0  0  0 
  9 11  1  0  0  0  0 
 10 12  1  0  0  0  0 
 11 13  1  0  0  0  0 
 13 14  1  0  0  0  0 
M  END
> <Name>
ETHYL 4-ETHOXYBENZOATE

> <Source>
NIST3DMolFile

> <Tox>
275

> <CAS>
23676-09-7

$$$$

  CDK

 12 12  0  0  0  0  0  0  0  0999 V2000
    0.8578    1.4634    0.0000 C   0  0  0  0  0  0  0  0  0  0  0  0
    1.7157    1.9680    0.0000 C   0  0  0  0  0  0  0  0  0  0  0  0
    0.8578    0.5046    0.0000 C   0  0  0  0  0  0  0  0  0  0  0  0
    0.0000    1.9680    0.0000 Br  0  0  0  0  0  0  0  0  0  0  0  0
    2.6240    1.4634    0.0000 C   0  0  0  0  0  0  0  0  0  0  0  0
    1.7661    0.0000    0.0000 C   0  0  0  0  0  0  0  0  0  0  0  0
    2.6240    0.5046    0.0000 C   0  0  0  0  0  0  0  0  0  0  0  0
    3.4314    2.0185    0.0000 C   0  0  0  0  0  0  0  0  0  0  0  0
    4.2892    1.5138    0.0000 O   0  0  0  0  0  0  0  0  0  0  0  0
    3.4314    3.0277    0.0000 O   0  0  0  0  0  0  0  0  0  0  0  0
    5.1975    2.0185    0.0000 C   0  0  0  0  0  0  0  0  0  0  0  0
    6.0554    1.5138    0.0000 C   0  0  0  0  0  0  0  0  0  0  0  0
  1  2  2  0  0  0  0 
  3  1  1  0  0  0  0 
  1  4  1  0  0  0  0 
  2  5  1  0  0  0  0 
  6  3  2  0  0  0  0 
  5  7  2  0  0  0  0 
  5  8  1  0  0  0  0 
  7  6  1  0  0  0  0 
  8  9  1  0  0  0  0 
  8 10  2  0  0  0  0 
  9 11  1  0  0  0  0 
 11 12  1  0  0  0  0 
M  END
> <Name>
BENZOIC ACID, 3-BROMO-, ETHYL ESTER

> <Source>
NIST2DMolFile

> <Tox>
261

> <CAS>
24398-88-7

$$$$

  CDK

 10 11  0  0  0  0  0  0  0  0999 V2000
    3.6400    2.1000    0.0000 C   0  0  0  0  0  0  0  0  0  0  0  0
    3.6400    0.7000    0.0000 C   0  0  0  0  0  0  0  0  0  0  0  0
    2.4267    2.7533    0.0000 C   0  0  0  0  0  0  0  0  0  0  0  0
    4.9933    2.5200    0.0000 C   0  0  0  0  0  0  0  0  0  0  0  0
    2.4267    0.0000    0.0000 C   0  0  0  0  0  0  0  0  0  0  0  0
    4.9933    0.2800    0.0000 C   0  0  0  0  0  0  0  0  0  0  0  0
    1.2133    2.1000    0.0000 C   0  0  0  0  0  0  0  0  0  0  0  0
    5.8333    1.4000    0.0000 C   0  0  0  0  0  0  0  0  0  0  0  0
    1.2133    0.7000    0.0000 C   0  0  0  0  0  0  0  0  0  0  0  0
    0.0000    0.0000    0.0000 N   0  0  0  0  0  0  0  0  0  0  0  0
  1  2  2  0  0  0  0 
  1  3  1  0  0  0  0 
  1  4  1  0  0  0  0 
  2  5  1  0  0  0  0 
  2  6  1  0  0  0  0 
  3  7  2  0  0  0  0 
  4  8  1  0  0  0  0 
  5  9  2  0  0  0  0 
  6  8  1  0  0  0  0 
  7  9  1  0  0  0  0 
  9 10  1  0  0  0  0 
M  END
> <Name>
Indan-5-ylamine

> <Source>
IndexNet2DMolFile

> <Tox>
248

> <CAS>
24425-40-9

$$$$

  CDK

  9  8  0  0  0  0  0  0  0  0999 V2000
   -0.2900    1.1625    0.0000 Cl  0  0  0  0  0  0  0  0  0  0  0  0
   -0.2900    0.3375    0.0000 C   0  0  0  0  0  0  0  0  0  0  0  0
    0.5350    0.3375    0.0000 C   0  0  0  0  0  0  0  0  0  0  0  0
   -1.1150    0.3375    0.0000 Cl  0  0  0  0  0  0  0  0  0  0  0  0
   -0.2900   -0.4875    0.0000 C   0  0  0  0  0  0  0  0  0  0  0  0
    0.5350    1.1625    0.0000 Cl  0  0  0  0  0  0  0  0  0  0  0  0
    0.5350   -0.4875    0.0000 Cl  0  0  0  0  0  0  0  0  0  0  0  0
    1.3600    0.3375    0.0000 Cl  0  0  0  0  0  0  0  0  0  0  0  0
    0.4245   -0.9000    0.0000 Cl  0  0  0  0  0  0  0  0  0  0  0  0
  1  2  1  0  0  0  0 
  2  3  1  0  0  0  0 
  2  4  1  0  0  0  0 
  2  5  1  0  0  0  0 
  3  6  1  0  0  0  0 
  3  7  1  0  0  0  0 
  3  8  1  0  0  0  0 
  5  9  1  0  0  0  0 
M  END
> <Name>
1,1,1,2,2,3-hexachloropropane

> <Source>
Smiles

> <Tox>
216

> <CAS>
24425-97-6

$$$$

  CDK

 10 10  0  0  0  0  0  0  0  0999 V2000
    4.1295    1.8248    0.0841 C   0  0  0  0  0  0  0  0  0  0  0  0
    2.7153    1.8818    0.1202 C   0  0  0  0  0  0  0  0  0  0  0  0
    4.8854    2.9969    0.0415 C   0  0  0  0  0  0  0  0  0  0  0  0
    4.6969    0.5713    0.0942 O   0  0  0  0  0  0  0  0  0  0  0  0
    2.0749    3.1349    0.1128 C   0  0  0  0  0  0  0  0  0  0  0  0
    1.9232    0.7703    0.1615 O   0  0  0  0  0  0  0  0  0  0  0  0
    4.2392    4.2286    0.0346 C   0  0  0  0  0  0  0  0  0  0  0  0
    2.8538    4.2948    0.0698 C   0  0  0  0  0  0  0  0  0  0  0  0
    0.5917    3.2311    0.1511 C   0  0  0  0  0  0  0  0  0  0  0  0
    0.0000    4.2884    0.1294 O   0  0  0  0  0  0  0  0  0  0  0  0
  1  2  2  0  0  0  0 
  3  1  1  0  0  0  0 
  1  4  1  0  0  0  0 
  2  5  1  0  0  0  0 
  2  6  1  0  0  0  0 
  7  3  2  0  0  0  0 
  5  8  2  0  0  0  0 
  5  9  1  0  0  0  0 
  8  7  1  0  0  0  0 
  9 10  2  0  0  0  0 
M  END
> <Name>
2,3-Dihydroxy-benzaldehyde

> <Source>
NIST3DMolFile

> <Tox>
235

> <CAS>
24677-78-9

$$$$

  CDK

  7  6  0  0  0  0  0  0  0  0999 V2000
   -1.4736    1.5527   -0.0002 C   0  0  0  0  0  0  0  0  0  0  0  0
   -1.1865    0.2495    0.0002 C   0  0  0  0  0  0  0  0  0  0  0  0
    0.2184   -0.2760    0.0000 C   0  0  0  0  0  0  0  0  0  0  0  0
   -2.2741   -0.7670    0.0002 C   0  0  0  0  0  0  0  0  0  0  0  0
    1.3416    0.7418    0.0002 C   0  0  0  0  0  0  0  0  0  0  0  0
    0.4342   -1.4739   -0.0002 O   0  0  0  0  0  0  0  0  0  0  0  0
    2.7267    0.1383    0.0000 C   0  0  0  0  0  0  0  0  0  0  0  0
  1  2  2  0  0  0  0 
  2  3  1  0  0  0  0 
  2  4  1  0  0  0  0 
  3  5  1  0  0  0  0 
  3  6  2  0  0  0  0 
  5  7  1  0  0  0  0 
M  END
> <Name>
1-PENTEN-3-ONE, 2-METHYL-

> <Source>
DougDB3DMolFile

> <Tox>
118.5

> <CAS>
25044-01-3

$$$$

  CDK

  7  7  0  0  0  0  0  0  0  0999 V2000
    1.8878    0.6009    1.0738 C   0  0  0  0  0  0  0  0  0  0  0  0
    1.9989    1.9406    1.7727 C   0  0  0  0  0  0  0  0  0  0  0  0
    3.1130    2.8232    1.1659 C   0  0  0  0  0  0  0  0  0  0  0  0
    0.7184    2.7692    1.6417 C   0  0  0  0  0  0  0  0  0  0  0  0
    4.2947    2.6083    1.9110 O   0  0  0  0  0  0  0  0  0  0  0  0
    2.6095    4.2802    1.2383 C   0  0  0  0  0  0  0  0  0  0  0  0
    1.1474    4.2311    1.6704 C   0  0  0  0  0  0  0  0  0  0  0  0
  1  2  1  0  0  0  0 
  3  2  1  0  0  0  0 
  2  4  1  0  0  0  0 
  3  5  1  0  0  0  0 
  6  3  1  0  0  0  0 
  4  7  1  0  0  0  0 
  7  6  1  0  0  0  0 
M  END
> <Name>
CYCLOPENTANOL, 2-METHYL-, TRANS-

> <Source>
NIST3DMolFile

> <Tox>
150.5

> <CAS>
25144-04-1

$$$$

  CDK

 11 10  0  0  0  0  0  0  0  0999 V2000
    0.0000   -1.9972    0.0000 C   0  0  0  0  0  0  0  0  0  0  0  0
    1.1547   -1.3419    0.0000 C   0  0  0  0  0  0  0  0  0  0  0  0
    2.3197   -1.9972    0.0000 C   0  0  0  0  0  0  0  0  0  0  0  0
    1.1547   -0.0000    0.0000 C   0  0  0  0  0  0  0  0  0  0  0  0
    3.4744   -1.3419    0.0000 C   0  0  0  0  0  0  0  0  0  0  0  0
    4.6290   -1.9972    0.0000 C   0  0  0  0  0  0  0  0  0  0  0  0
    5.7837   -1.3419    0.0000 C   0  0  0  0  0  0  0  0  0  0  0  0
    6.9487   -1.9972    0.0000 C   0  0  0  0  0  0  0  0  0  0  0  0
    8.1034   -1.3419    0.0000 C   0  0  0  0  0  0  0  0  0  0  0  0
    9.2476   -1.9972    0.0000 C   0  0  0  0  0  0  0  0  0  0  0  0
   10.4023   -1.3419    0.0000 O   0  0  0  0  0  0  0  0  0  0  0  0
  1  2  1  0  0  0  0 
  2  3  1  0  0  0  0 
  2  4  1  0  0  0  0 
  3  5  1  0  0  0  0 
  5  6  1  0  0  0  0 
  6  7  1  0  0  0  0 
  7  8  1  0  0  0  0 
  8  9  1  0  0  0  0 
  9 10  1  0  0  0  0 
 10 11  1  0  0  0  0 
M  END
> <Name>
ISODECANOL

> <Source>
DSSTox2DMolFile

> <Tox>
221

> <CAS>
25339-17-7

$$$$

  CDK

  7  6  0  0  0  0  0  0  0  0999 V2000
    1.3255    1.5109    0.9711 Br  0  0  0  0  0  0  0  0  0  0  0  0
    0.0529    0.4237   -0.1161 C   0  0  0  0  0  0  0  0  0  0  0  0
    0.8606   -0.6852   -0.8249 C   0  0  0  0  0  0  0  0  0  0  0  0
   -1.0342   -0.0789    0.8555 C   0  0  0  0  0  0  0  0  0  0  0  0
   -0.5249    1.3908   -1.1602 C   0  0  0  0  0  0  0  0  0  0  0  0
    1.5021   -1.7306    0.0824 C   0  0  0  0  0  0  0  0  0  0  0  0
   -2.1821   -0.8306    0.1921 C   0  0  0  0  0  0  0  0  0  0  0  0
  1  2  1  0  0  0  0 
  2  3  1  0  0  0  0 
  2  4  1  0  0  0  0 
  2  5  1  0  0  0  0 
  3  6  1  0  0  0  0 
  4  7  1  0  0  0  0 
M  END
> <Name>
Pentane, 3-bromo-3-methyl-

> <Source>
Chemidplus3DMolFile

> <Tox>
130

> <CAS>
25346-31-0

$$$$

  CDK

  7  6  0  0  0  0  0  0  0  0999 V2000
   -2.2949   -0.0674    0.0000 Br  0  0  0  0  0  0  0  0  0  0  0  0
   -1.4699   -0.0674    0.0000 C   0  0  0  0  0  0  0  0  0  0  0  0
   -0.6449   -0.0674    0.0000 C   0  0  0  0  0  0  0  0  0  0  0  0
    0.1801   -0.0674    0.0000 C   0  0  0  0  0  0  0  0  0  0  0  0
   -0.6449    0.7576    0.0000 C   0  0  0  0  0  0  0  0  0  0  0  0
    1.0051   -0.0674    0.0000 C   0  0  0  0  0  0  0  0  0  0  0  0
    1.8301   -0.0674    0.0000 C   0  0  0  0  0  0  0  0  0  0  0  0
  1  2  1  0  0  0  0 
  2  3  1  0  0  0  0 
  3  4  1  0  0  0  0 
  3  5  1  0  0  0  0 
  4  6  1  0  0  0  0 
  6  7  1  0  0  0  0 
M  END
> <Name>
Pentane, 1-bromo-2-methyl-

> <Source>
Smiles

> <Tox>
141

> <CAS>
25346-33-2

$$$$

  CDK

 10  9  0  0  0  0  0  0  0  0999 V2000
    0.4898   -2.3048    0.0000 F   0  0  0  0  0  0  0  0  0  0  0  0
    1.1524   -1.1524    0.0000 C   0  0  0  0  0  0  0  0  0  0  0  0
    2.3048   -1.8150    0.0000 C   0  0  0  0  0  0  0  0  0  0  0  0
    0.0000   -0.4840    0.0000 F   0  0  0  0  0  0  0  0  0  0  0  0
    1.8150   -0.0000    0.0000 F   0  0  0  0  0  0  0  0  0  0  0  0
    3.4571   -1.1524    0.0000 O   0  0  0  0  0  0  0  0  0  0  0  0
    2.3048   -3.1460    0.0000 Cl  0  0  0  0  0  0  0  0  0  0  0  0
    4.6095   -1.8150    0.0000 C   0  0  0  0  0  0  0  0  0  0  0  0
    4.6095   -3.1460    0.0000 F   0  0  0  0  0  0  0  0  0  0  0  0
    5.7619   -1.1524    0.0000 F   0  0  0  0  0  0  0  0  0  0  0  0
  1  2  1  0  0  0  0 
  2  3  1  0  0  0  0 
  2  4  1  0  0  0  0 
  2  5  1  0  0  0  0 
  3  6  1  0  0  0  0 
  3  7  1  0  0  0  0 
  6  8  1  0  0  0  0 
  8  9  1  0  0  0  0 
  8 10  1  0  0  0  0 
M  END
> <Name>
ISOFLURANE

> <Source>
DSSTox2DMolFile

> <Tox>
48.5

> <CAS>
26675-46-7

$$$$

  CDK

 12 11  0  0  0  0  0  0  0  0999 V2000
    2.0438    1.7372    0.0000 S   0  0  0  0  0  0  0  0  0  0  0  0
    3.0146    1.7372    0.0000 O   0  0  0  0  0  0  0  0  0  0  0  0
    2.0438    2.7080    0.0000 O   0  0  0  0  0  0  0  0  0  0  0  0
    2.0438    0.7664    0.0000 O   0  0  0  0  0  0  0  0  0  0  0  0
    1.0219    1.7372    0.0000 C   0  0  0  0  0  0  0  0  0  0  0  0
    3.5766    0.8686    0.0000 Si  0  0  0  0  0  0  0  0  0  0  0  0
    1.0219    0.7664    0.0000 F   0  0  0  0  0  0  0  0  0  0  0  0
    0.0000    1.7372    0.0000 F   0  0  0  0  0  0  0  0  0  0  0  0
    1.0219    2.7080    0.0000 F   0  0  0  0  0  0  0  0  0  0  0  0
    2.6569    0.3577    0.0000 C   0  0  0  0  0  0  0  0  0  0  0  0
    4.4453    1.3796    0.0000 C   0  0  0  0  0  0  0  0  0  0  0  0
    4.0876    0.0000    0.0000 C   0  0  0  0  0  0  0  0  0  0  0  0
  1  2  1  0  0  0  0 
  1  3  2  0  0  0  0 
  1  4  2  0  0  0  0 
  1  5  1  0  0  0  0 
  2  6  1  0  0  0  0 
  5  7  1  0  0  0  0 
  5  8  1  0  0  0  0 
  5  9  1  0  0  0  0 
  6 10  1  0  0  0  0 
  6 11  1  0  0  0  0 
  6 12  1  0  0  0  0 
M  END
> <Name>
Trimethylsilyl Triflate

> <Source>
NIST2DMolFile

> <Tox>
140

> <CAS>
27607-77-8

$$$$

  CDK

 12 11  0  0  0  0  0  0  0  0999 V2000
    5.5969    1.2127    0.0000 F   0  0  0  0  0  0  0  0  0  0  0  0
    4.1977    1.2127    0.0000 C   0  0  0  0  0  0  0  0  0  0  0  0
    3.4981    2.4253    0.0000 O   0  0  0  0  0  0  0  0  0  0  0  0
    2.0988    2.4253    0.0000 C   0  0  0  0  0  0  0  0  0  0  0  0
    1.3992    1.2127    0.0000 C   0  0  0  0  0  0  0  0  0  0  0  0
    1.3992    3.6380    0.0000 C   0  0  0  0  0  0  0  0  0  0  0  0
    2.0988    0.0000    0.0000 F   0  0  0  0  0  0  0  0  0  0  0  0
    0.3265    0.3265    0.0000 F   0  0  0  0  0  0  0  0  0  0  0  0
    0.3265    2.1455    0.0000 F   0  0  0  0  0  0  0  0  0  0  0  0
    0.0000    3.6380    0.0000 F   0  0  0  0  0  0  0  0  0  0  0  0
    1.1660    5.0372    0.0000 F   0  0  0  0  0  0  0  0  0  0  0  0
    2.7052    4.1044    0.0000 F   0  0  0  0  0  0  0  0  0  0  0  0
  1  2  1  0  0  0  0 
  2  3  1  0  0  0  0 
  3  4  1  0  0  0  0 
  4  5  1  0  0  0  0 
  4  6  1  0  0  0  0 
  5  7  1  0  0  0  0 
  5  8  1  0  0  0  0 
  5  9  1  0  0  0  0 
  6 10  1  0  0  0  0 
  6 11  1  0  0  0  0 
  6 12  1  0  0  0  0 
M  END
> <Name>
Sevoflurane

> <Source>
IndexNet2DMolFile

> <Tox>
58.5

> <CAS>
28523-86-6

$$$$

  CDK

 14 15  0  0  0  0  0  0  0  0999 V2000
    2.1594    5.1488    2.1011 O   0  0  0  0  0  0  0  0  0  0  0  0
    2.1154    3.8062    2.3711 C   0  0  0  0  0  0  0  0  0  0  0  0
    3.3174    3.0826    2.2299 C   0  0  0  0  0  0  0  0  0  0  0  0
    0.9304    3.1702    2.7646 C   0  0  0  0  0  0  0  0  0  0  0  0
    3.2899    1.7125    2.4846 C   0  0  0  0  0  0  0  0  0  0  0  0
    4.5681    3.7814    1.7966 C   0  0  0  0  0  0  0  0  0  0  0  0
    0.9406    1.8040    3.0151 C   0  0  0  0  0  0  0  0  0  0  0  0
    2.1157    1.0768    2.8742 C   0  0  0  0  0  0  0  0  0  0  0  0
    5.8208    2.9889    2.0006 C   0  0  0  0  0  0  0  0  0  0  0  0
    6.4914    3.0410    3.2241 C   0  0  0  0  0  0  0  0  0  0  0  0
    6.3427    2.2132    0.9639 C   0  0  0  0  0  0  0  0  0  0  0  0
    7.6684    2.3241    3.4072 C   0  0  0  0  0  0  0  0  0  0  0  0
    7.5207    1.4986    1.1504 C   0  0  0  0  0  0  0  0  0  0  0  0
    8.1850    1.5534    2.3709 C   0  0  0  0  0  0  0  0  0  0  0  0
  1  2  1  0  0  0  0 
  2  3  2  0  0  0  0 
  4  2  1  0  0  0  0 
  3  5  1  0  0  0  0 
  3  6  1  0  0  0  0 
  7  4  2  0  0  0  0 
  5  8  2  0  0  0  0 
  6  9  1  0  0  0  0 
  8  7  1  0  0  0  0 
  9 10  2  0  0  0  0 
 11  9  1  0  0  0  0 
 10 12  1  0  0  0  0 
 13 11  2  0  0  0  0 
 12 14  2  0  0  0  0 
 14 13  1  0  0  0  0 
M  END
> <Name>
Phenol, 2-(phenylmethyl)-

> <Source>
NIST3DMolFile

> <Tox>
312

> <CAS>
28994-41-4

$$$$

  CDK

 10  9  0  0  0  0  0  0  0  0999 V2000
   -2.8243   -1.6885    0.7443 Cl  0  0  0  0  0  0  0  0  0  0  0  0
   -2.4156   -0.4560   -0.4562 C   0  0  0  0  0  0  0  0  0  0  0  0
   -3.8072    0.5886   -0.7872 Cl  0  0  0  0  0  0  0  0  0  0  0  0
   -1.2804    0.3677    0.0918 C   0  0  0  0  0  0  0  0  0  0  0  0
   -0.0849   -0.2038   -0.2645 O   0  0  0  0  0  0  0  0  0  0  0  0
   -1.4013    1.3783    0.7718 O   0  0  0  0  0  0  0  0  0  0  0  0
    1.0834    0.4523    0.2085 C   0  0  0  0  0  0  0  0  0  0  0  0
    2.3071   -0.3115   -0.2771 C   0  0  0  0  0  0  0  0  0  0  0  0
    3.6026    0.3316    0.2097 C   0  0  0  0  0  0  0  0  0  0  0  0
    4.8206   -0.4586   -0.2411 C   0  0  0  0  0  0  0  0  0  0  0  0
  1  2  1  0  0  0  0 
  3  2  1  0  0  0  0 
  4  2  1  0  0  0  0 
  5  4  1  0  0  0  0 
  6  4  2  0  0  0  0 
  5  7  1  0  0  0  0 
  8  7  1  0  0  0  0 
  8  9  1  0  0  0  0 
  9 10  1  0  0  0  0 
M  END
> <Name>
Dichloro-acetic acid butyl ester

> <Source>
Chemidplus3DMolFile

> <Tox>
193.5

> <CAS>
29003-73-4

$$$$

  CDK

  6  7  0  0  0  0  0  0  0  0999 V2000
    0.7854    1.5056    1.3454 C   0  0  0  0  0  0  0  0  0  0  0  0
    1.2089    1.2724    0.0000 O   0  0  0  0  0  0  0  0  0  0  0  0
    2.1525    1.8871    0.8935 C   0  0  0  0  0  0  0  0  0  0  0  0
    3.3275    1.0411    1.2954 C   0  0  0  0  0  0  0  0  0  0  0  0
    4.6147    1.6782    1.2327 O   0  0  0  0  0  0  0  0  0  0  0  0
    4.0890    1.3814    2.5291 C   0  0  0  0  0  0  0  0  0  0  0  0
  2  1  1  0  0  0  0 
  1  3  1  0  0  0  0 
  3  2  1  0  0  0  0 
  3  4  1  0  0  0  0 
  4  5  1  0  0  0  0 
  6  4  1  0  0  0  0 
  5  6  1  0  0  0  0 
M  END
> <Name>
1,2:3,4-DIEPOXYBUTANE (2S,3S)

> <Source>
NIST3DMolFile

> <Tox>
144

> <CAS>
30031-64-2

$$$$

  CDK

  6  7  0  0  0  0  0  0  0  0999 V2000
    0.0000    0.0000    0.0000 C   0  0  0  0  0  0  0  0  0  0  0  0
   -1.4000   -0.3400   -0.4600 C   0  0  0  0  0  0  0  0  0  0  0  0
    0.4000    1.1800   -0.6000 O   0  0  0  0  0  0  0  0  0  0  0  0
    0.2800    1.3400    0.7600 C   0  0  0  0  0  0  0  0  0  0  0  0
   -1.3400   -1.5800   -1.1000 O   0  0  0  0  0  0  0  0  0  0  0  0
   -2.1200   -1.6200    0.0400 C   0  0  0  0  0  0  0  0  0  0  0  0
  1  2  1  0  0  0  0 
  1  3  1  0  0  0  0 
  1  4  1  0  0  0  0 
  2  5  1  0  0  0  0 
  2  6  1  0  0  0  0 
  3  4  1  0  0  0  0 
  5  6  1  0  0  0  0 
M  END
> <Name>
1,2:3,4-DIEPOXYBUTANE (2R,3R)

> <Source>
NIH3DMolFile

> <Tox>
144

> <CAS>
30419-67-1

$$$$

  CDK

  8  8  0  0  0  0  0  0  0  0999 V2000
   -0.2020   -0.9416    0.0000 C   0  0  0  0  0  0  0  0  0  0  0  0
   -0.2020   -1.7666    0.0000 O   0  0  0  0  0  0  0  0  0  0  0  0
    0.5125   -0.5291    0.0000 C   0  0  0  0  0  0  0  0  0  0  0  0
   -0.9165   -0.5291    0.0000 C   0  0  0  0  0  0  0  0  0  0  0  0
    0.5125    0.2959    0.0000 C   0  0  0  0  0  0  0  0  0  0  0  0
   -0.9165    0.2959    0.0000 C   0  0  0  0  0  0  0  0  0  0  0  0
    1.2269    0.7084    0.0000 C   0  0  0  0  0  0  0  0  0  0  0  0
   -0.2020    0.7084    0.0000 C   0  0  0  0  0  0  0  0  0  0  0  0
  1  2  2  0  0  0  0 
  1  3  1  0  0  0  0 
  1  4  1  0  0  0  0 
  3  5  1  0  0  0  0 
  6  4  1  0  0  0  0 
  5  7  1  0  0  0  0 
  5  8  2  0  0  0  0 
  8  6  1  0  0  0  0 
M  END
> <Name>
3-Methyl-cyclohex-3-enone

> <Source>
Smiles

> <Tox>
201

> <CAS>
31883-98-4

$$$$

  CDK

  8  8  0  0  0  0  0  0  0  0999 V2000
    0.0000    0.8481    0.0000 C   0  0  0  0  0  0  0  0  0  0  0  0
    0.9978    0.8481    0.0000 C   0  0  0  0  0  0  0  0  0  0  0  0
    1.4967    1.7462    0.0000 C   0  0  0  0  0  0  0  0  0  0  0  0
    1.4967    0.0000    0.0000 C   0  0  0  0  0  0  0  0  0  0  0  0
    2.4945    1.7462    0.0000 C   0  0  0  0  0  0  0  0  0  0  0  0
    2.4945    0.0000    0.0000 N   0  0  0  0  0  0  0  0  0  0  0  0
    2.9934    2.5943    0.0000 C   0  0  0  0  0  0  0  0  0  0  0  0
    2.9934    0.8481    0.0000 C   0  0  0  0  0  0  0  0  0  0  0  0
  1  2  1  0  0  0  0 
  3  2  1  0  0  0  0 
  2  4  1  0  0  0  0 
  5  3  1  0  0  0  0 
  4  6  1  0  0  0  0 
  5  7  1  0  0  0  0 
  8  5  1  0  0  0  0 
  6  8  1  0  0  0  0 
M  END
> <Name>
Piperidine, 3,5-dimethyl-

> <Source>
NIST2DMolFile

> <Tox>
144

> <CAS>
35794-11-7

$$$$

  CDK

  6  5  0  0  0  0  0  0  0  0999 V2000
    2.2324    0.1871    0.0000 Cl  0  0  0  0  0  0  0  0  0  0  0  0
    1.4222    0.0312    0.0000 C   0  0  0  0  0  0  0  0  0  0  0  0
    0.6121   -0.1247    0.0000 C   0  0  0  0  0  0  0  0  0  0  0  0
   -0.1980   -0.2806    0.0000 C   0  0  0  0  0  0  0  0  0  0  0  0
   -1.0082   -0.4365    0.0000 O   0  0  0  0  0  0  0  0  0  0  0  0
   -1.5483    0.1871    0.0000 C   0  0  0  0  0  0  0  0  0  0  0  0
  1  2  1  0  0  0  0 
  2  3  1  0  0  0  0 
  3  4  1  0  0  0  0 
  4  5  1  0  0  0  0 
  5  6  1  0  0  0  0 
M  END
> <Name>
1-Chloro-3-methoxy-propane

> <Source>
Smiles

> <Tox>
111

> <CAS>
36215-07-3

$$$$

  CDK

 10 11  0  0  0  0  0  0  0  0999 V2000
    0.8785    1.9637    0.0000 C   0  0  0  0  0  0  0  0  0  0  0  0
    0.0000    1.4470    0.0000 C   0  0  0  0  0  0  0  0  0  0  0  0
    1.8087    1.4470    0.0000 C   0  0  0  0  0  0  0  0  0  0  0  0
    0.0000    0.4651    0.0000 C   0  0  0  0  0  0  0  0  0  0  0  0
    1.8087    0.4651    0.0000 C   0  0  0  0  0  0  0  0  0  0  0  0
    2.6872    1.9637    0.0000 C   0  0  0  0  0  0  0  0  0  0  0  0
    0.8785    0.0000    0.0000 C   0  0  0  0  0  0  0  0  0  0  0  0
    2.6872    0.0000    0.0000 C   0  0  0  0  0  0  0  0  0  0  0  0
    3.5141    1.4470    0.0000 C   0  0  0  0  0  0  0  0  0  0  0  0
    3.5141    0.4651    0.0000 N   0  0  0  0  0  0  0  0  0  0  0  0
  2  1  1  0  0  0  0 
  1  3  1  0  0  0  0 
  4  2  1  0  0  0  0 
  5  3  2  0  0  0  0 
  3  6  1  0  0  0  0 
  7  4  1  0  0  0  0 
  5  7  1  0  0  0  0 
  8  5  1  0  0  0  0 
  6  9  2  0  0  0  0 
 10  8  2  0  0  0  0 
  9 10  1  0  0  0  0 
M  END
> <Name>
5,6,7,8-Tetrahydro-isoquinoline

> <Source>
NIST2DMolFile

> <Tox>
218

> <CAS>
36556-06-6

$$$$

  CDK

 11 11  0  0  0  0  0  0  0  0999 V2000
    1.2127    2.0988    0.0000 C   0  0  0  0  0  0  0  0  0  0  0  0
    1.2127    0.6996    0.0000 C   0  0  0  0  0  0  0  0  0  0  0  0
    2.4253    2.7984    0.0000 C   0  0  0  0  0  0  0  0  0  0  0  0
    0.0000    2.7984    0.0000 Cl  0  0  0  0  0  0  0  0  0  0  0  0
    2.4253    0.0000    0.0000 C   0  0  0  0  0  0  0  0  0  0  0  0
    0.0000    0.0000    0.0000 Cl  0  0  0  0  0  0  0  0  0  0  0  0
    3.6380    2.0988    0.0000 C   0  0  0  0  0  0  0  0  0  0  0  0
    2.4253    4.1977    0.0000 O   0  0  0  0  0  0  0  0  0  0  0  0
    3.6380    0.6996    0.0000 C   0  0  0  0  0  0  0  0  0  0  0  0
    4.8506    2.7984    0.0000 Cl  0  0  0  0  0  0  0  0  0  0  0  0
    1.2127    4.8973    0.0000 C   0  0  0  0  0  0  0  0  0  0  0  0
  1  2  2  0  0  0  0 
  1  3  1  0  0  0  0 
  1  4  1  0  0  0  0 
  2  5  1  0  0  0  0 
  2  6  1  0  0  0  0 
  7  3  2  0  0  0  0 
  3  8  1  0  0  0  0 
  5  9  2  0  0  0  0 
  9  7  1  0  0  0  0 
  7 10  1  0  0  0  0 
  8 11  1  0  0  0  0 
M  END
> <Name>
2,3,6-TRICHLOROANISOLE

> <Source>
IndexNet2DMolFile

> <Tox>
227

> <CAS>
50375-10-5

$$$$

  CDK

  7  6  0  0  0  0  0  0  0  0999 V2000
    0.0000    0.9598    0.0000 C   0  0  0  0  0  0  0  0  0  0  0  0
    0.9093    1.4650    0.0000 C   0  0  0  0  0  0  0  0  0  0  0  0
    1.7681    0.9598    0.0000 C   0  0  0  0  0  0  0  0  0  0  0  0
    0.9093    2.4753    0.0000 C   0  0  0  0  0  0  0  0  0  0  0  0
    2.5763    1.4650    0.0000 C   0  0  0  0  0  0  0  0  0  0  0  0
    1.7681    0.0000    0.0000 O   0  0  0  0  0  0  0  0  0  0  0  0
    3.4856    0.9598    0.0000 O   0  0  0  0  0  0  0  0  0  0  0  0
  1  2  1  0  0  0  0 
  2  3  1  0  0  0  0 
  2  4  1  0  0  0  0 
  3  5  1  0  0  0  0 
  3  6  1  0  0  0  0 
  5  7  1  0  0  0  0 
M  END
> <Name>
3-Methyl-butane-1,2-diol

> <Source>
NIST2DMolFile

> <Tox>
206

> <CAS>
50468-22-9

$$$$

  CDK

  9  9  0  0  0  0  0  0  0  0999 V2000
    1.8560    2.2083    2.1015 C   0  0  0  0  0  0  0  0  0  0  0  0
    0.8631    3.2652    1.6352 C   0  0  0  0  0  0  0  0  0  0  0  0
    1.1636    1.2692    3.0856 C   0  0  0  0  0  0  0  0  0  0  0  0
    3.0903    2.8557    2.7565 C   0  0  0  0  0  0  0  0  0  0  0  0
    2.4187    1.4141    0.9122 C   0  0  0  0  0  0  0  0  0  0  0  0
    4.3367    2.0605    2.3134 C   0  0  0  0  0  0  0  0  0  0  0  0
    3.8331    1.0109    1.3030 C   0  0  0  0  0  0  0  0  0  0  0  0
    5.3523    2.9875    1.6524 C   0  0  0  0  0  0  0  0  0  0  0  0
    4.9906    1.3780    3.5100 C   0  0  0  0  0  0  0  0  0  0  0  0
  1  2  1  0  0  0  0 
  1  3  1  0  0  0  0 
  1  4  1  0  0  0  0 
  5  1  1  0  0  0  0 
  4  6  1  0  0  0  0 
  7  5  1  0  0  0  0 
  6  7  1  0  0  0  0 
  6  8  1  0  0  0  0 
  6  9  1  0  0  0  0 
M  END
> <Name>
CYCLOPENTANE, 1,1,3,3-TETRAMETHYL-

> <Source>
NIST3DMolFile

> <Tox>
118

> <CAS>
50876-33-0

$$$$

  CDK

 10  9  0  0  0  0  0  0  0  0999 V2000
   -1.0364   -0.4246    0.0089 C   0  0  0  0  0  0  0  0  0  0  0  0
    0.1378    0.5449    0.3654 C   0  0  0  0  0  0  0  0  0  0  0  0
   -2.3678    0.1662    0.5856 C   0  0  0  0  0  0  0  0  0  0  0  0
   -1.1929   -0.5873   -1.5168 C   0  0  0  0  0  0  0  0  0  0  0  0
   -0.8750   -1.8200    0.6338 C   0  0  0  0  0  0  0  0  0  0  0  0
    1.6346    0.2549    0.0258 C   0  0  0  0  0  0  0  0  0  0  0  0
   -2.7890    1.5279    0.0432 C   0  0  0  0  0  0  0  0  0  0  0  0
    2.4873    1.5191   -0.1276 C   0  0  0  0  0  0  0  0  0  0  0  0
    2.2150   -0.5576    1.2116 C   0  0  0  0  0  0  0  0  0  0  0  0
    1.7863   -0.6234   -1.2300 C   0  0  0  0  0  0  0  0  0  0  0  0
  1  2  1  0  0  0  0 
  1  3  1  0  0  0  0 
  1  4  1  0  0  0  0 
  1  5  1  0  0  0  0 
  2  6  1  0  0  0  0 
  3  7  1  0  0  0  0 
  6  8  1  0  0  0  0 
  6  9  1  0  0  0  0 
  6 10  1  0  0  0  0 
M  END
> <Name>
2,2,4,4-TETRAMETHYLHEXANE

> <Source>
Chemidplus3DMolFile

> <Tox>
153.8

> <CAS>
51750-65-3

$$$$

  CDK

 10  9  0  0  0  0  0  0  0  0999 V2000
    0.1584   -0.6968    0.4015 C   0  0  0  0  0  0  0  0  0  0  0  0
   -1.0734    0.2614    0.5275 C   0  0  0  0  0  0  0  0  0  0  0  0
    1.4078    0.0003   -0.1985 C   0  0  0  0  0  0  0  0  0  0  0  0
   -0.1763   -1.9858   -0.3921 C   0  0  0  0  0  0  0  0  0  0  0  0
   -1.4739    0.9075   -0.8158 C   0  0  0  0  0  0  0  0  0  0  0  0
   -2.2672   -0.4495    1.1844 C   0  0  0  0  0  0  0  0  0  0  0  0
    1.9223    1.2403    0.5410 C   0  0  0  0  0  0  0  0  0  0  0  0
    0.9777   -2.9784   -0.4729 C   0  0  0  0  0  0  0  0  0  0  0  0
   -2.6539    1.8650   -0.6999 C   0  0  0  0  0  0  0  0  0  0  0  0
    3.1786    1.8360   -0.0752 C   0  0  0  0  0  0  0  0  0  0  0  0
  1  2  1  0  0  0  0 
  1  3  1  0  0  0  0 
  1  4  1  0  0  0  0 
  2  5  1  0  0  0  0 
  2  6  1  0  0  0  0 
  3  7  1  0  0  0  0 
  4  8  1  0  0  0  0 
  5  9  1  0  0  0  0 
  7 10  1  0  0  0  0 
M  END
> <Name>
4-ETHYL-3-METHYLHEPTANE

> <Source>
Chemidplus3DMolFile

> <Tox>
165

> <CAS>
52896-89-6

$$$$

  CDK

 10  9  0  0  0  0  0  0  0  0999 V2000
    4.0302    2.7548    0.0000 C   0  0  0  0  0  0  0  0  0  0  0  0
    3.5201    1.8366    0.0000 C   0  0  0  0  0  0  0  0  0  0  0  0
    2.5508    1.8366    0.0000 C   0  0  0  0  0  0  0  0  0  0  0  0
    2.0406    2.7038    0.0000 C   0  0  0  0  0  0  0  0  0  0  0  0
    2.0406    1.0203    0.0000 C   0  0  0  0  0  0  0  0  0  0  0  0
    2.4997    0.1530    0.0000 C   0  0  0  0  0  0  0  0  0  0  0  0
    1.0713    1.0203    0.0000 C   0  0  0  0  0  0  0  0  0  0  0  0
    1.0713    1.9896    0.0000 C   0  0  0  0  0  0  0  0  0  0  0  0
    1.0713    0.0000    0.0000 C   0  0  0  0  0  0  0  0  0  0  0  0
    0.0000    1.0203    0.0000 C   0  0  0  0  0  0  0  0  0  0  0  0
  1  2  1  0  0  0  0 
  2  3  1  0  0  0  0 
  3  4  1  0  0  0  0 
  3  5  1  0  0  0  0 
  5  6  1  0  0  0  0 
  5  7  1  0  0  0  0 
  7  8  1  0  0  0  0 
  7  9  1  0  0  0  0 
  7 10  1  0  0  0  0 
M  END
> <Name>
2,2,3,4-TETRAMETHYLHEXANE

> <Source>
NIST2DMolFile

> <Tox>
157

> <CAS>
52897-08-2

$$$$

  CDK

 10  9  0  0  0  0  0  0  0  0999 V2000
    0.1014    0.0000    0.0000 C   0  0  0  0  0  0  0  0  0  0  0  0
    0.5577    0.9127    0.0000 C   0  0  0  0  0  0  0  0  0  0  0  0
    1.5718    0.9127    0.0000 C   0  0  0  0  0  0  0  0  0  0  0  0
    0.0000    1.7239    0.0000 C   0  0  0  0  0  0  0  0  0  0  0  0
    2.0282    1.7747    0.0000 C   0  0  0  0  0  0  0  0  0  0  0  0
    2.9916    1.7747    0.0000 C   0  0  0  0  0  0  0  0  0  0  0  0
    1.5211    2.6366    0.0000 C   0  0  0  0  0  0  0  0  0  0  0  0
    4.0563    1.7747    0.0000 C   0  0  0  0  0  0  0  0  0  0  0  0
    2.9916    2.7887    0.0000 C   0  0  0  0  0  0  0  0  0  0  0  0
    2.9916    0.8113    0.0000 C   0  0  0  0  0  0  0  0  0  0  0  0
  1  2  1  0  0  0  0 
  2  3  1  0  0  0  0 
  2  4  1  0  0  0  0 
  3  5  1  0  0  0  0 
  5  6  1  0  0  0  0 
  5  7  1  0  0  0  0 
  6  8  1  0  0  0  0 
  6  9  1  0  0  0  0 
  6 10  1  0  0  0  0 
M  END
> <Name>
2,2,3,5-TETRAMETHYLHEXANE

> <Source>
NIST2DMolFile

> <Tox>
148.4

> <CAS>
52897-09-3

$$$$

  CDK

 10  9  0  0  0  0  0  0  0  0999 V2000
    0.0000    1.8495    0.0000 C   0  0  0  0  0  0  0  0  0  0  0  0
    1.0275    1.8495    0.0000 C   0  0  0  0  0  0  0  0  0  0  0  0
    1.5413    1.0275    0.0000 C   0  0  0  0  0  0  0  0  0  0  0  0
    2.5174    1.0275    0.0000 C   0  0  0  0  0  0  0  0  0  0  0  0
    1.0275    0.1541    0.0000 C   0  0  0  0  0  0  0  0  0  0  0  0
    3.5449    1.0275    0.0000 C   0  0  0  0  0  0  0  0  0  0  0  0
    2.5174    2.0036    0.0000 C   0  0  0  0  0  0  0  0  0  0  0  0
    2.5174    0.0000    0.0000 C   0  0  0  0  0  0  0  0  0  0  0  0
    4.0586    1.8495    0.0000 C   0  0  0  0  0  0  0  0  0  0  0  0
    4.0586    0.1541    0.0000 C   0  0  0  0  0  0  0  0  0  0  0  0
  1  2  1  0  0  0  0 
  2  3  1  0  0  0  0 
  3  4  1  0  0  0  0 
  3  5  1  0  0  0  0 
  4  6  1  0  0  0  0 
  4  7  1  0  0  0  0 
  4  8  1  0  0  0  0 
  6  9  1  0  0  0  0 
  6 10  1  0  0  0  0 
M  END
> <Name>
2,3,3,4-TETRAMETHYLHEXANE

> <Source>
NIST2DMolFile

> <Tox>
164.6

> <CAS>
52897-10-6

$$$$

  CDK

  9  8  0  0  0  0  0  0  0  0999 V2000
    2.6246    1.5647    0.0000 C   0  0  0  0  0  0  0  0  0  0  0  0
    1.7161    1.0095    0.0000 C   0  0  0  0  0  0  0  0  0  0  0  0
    3.4827    1.0599    0.0000 C   0  0  0  0  0  0  0  0  0  0  0  0
    2.6246    2.5237    0.0000 C   0  0  0  0  0  0  0  0  0  0  0  0
    0.8580    1.5142    0.0000 C   0  0  0  0  0  0  0  0  0  0  0  0
    1.7161    0.0000    0.0000 C   0  0  0  0  0  0  0  0  0  0  0  0
    4.3407    1.5142    0.0000 C   0  0  0  0  0  0  0  0  0  0  0  0
    0.8580    2.5237    0.0000 C   0  0  0  0  0  0  0  0  0  0  0  0
    0.0000    1.0095    0.0000 O   0  0  0  0  0  0  0  0  0  0  0  0
  1  2  1  0  0  0  0 
  1  3  2  0  0  0  0 
  1  4  1  0  0  0  0 
  2  5  1  0  0  0  0 
  2  6  1  0  0  0  0 
  3  7  1  0  0  0  0 
  5  8  1  0  0  0  0 
  5  9  2  0  0  0  0 
M  END
> <Name>
4-HEXEN-2-ONE, 3,4-DIMETHYL-

> <Source>
NIST2DMolFile

> <Tox>
154

> <CAS>
53252-21-4

$$$$

  CDK

 11 10  0  0  0  0  0  0  0  0999 V2000
    2.5906    2.0426    0.0000 C   0  0  0  0  0  0  0  0  0  0  0  0
    1.7437    1.5444    0.0000 C   0  0  0  0  0  0  0  0  0  0  0  0
    3.4375    1.4946    0.0000 C   0  0  0  0  0  0  0  0  0  0  0  0
    2.5906    2.9892    0.0000 C   0  0  0  0  0  0  0  0  0  0  0  0
    0.8469    1.9928    0.0000 C   0  0  0  0  0  0  0  0  0  0  0  0
    1.7437    0.4982    0.0000 C   0  0  0  0  0  0  0  0  0  0  0  0
    4.3343    1.9928    0.0000 C   0  0  0  0  0  0  0  0  0  0  0  0
    0.8469    2.9892    0.0000 C   0  0  0  0  0  0  0  0  0  0  0  0
    0.0000    1.4946    0.0000 O   0  0  0  0  0  0  0  0  0  0  0  0
    0.8469    0.0000    0.0000 C   0  0  0  0  0  0  0  0  0  0  0  0
    5.1812    1.4946    0.0000 C   0  0  0  0  0  0  0  0  0  0  0  0
  1  2  2  0  0  0  0 
  1  3  1  0  0  0  0 
  1  4  1  0  0  0  0 
  2  5  1  0  0  0  0 
  2  6  1  0  0  0  0 
  3  7  1  0  0  0  0 
  5  8  1  0  0  0  0 
  5  9  2  0  0  0  0 
  6 10  1  0  0  0  0 
  7 11  1  0  0  0  0 
M  END
> <Name>
3-HEPTEN-2-ONE, 3-ETHYL-4-METHYL-

> <Source>
NIST2DMolFile

> <Tox>
190

> <CAS>
54244-90-5

$$$$

  CDK

 17 18  0  0  0  0  0  0  0  0999 V2000
    5.5405    5.4676    2.5207 C   0  0  0  0  0  0  0  0  0  0  0  0
    4.0719    5.8307    2.2728 C   0  0  0  0  0  0  0  0  0  0  0  0
    5.8767    4.1070    1.8993 C   0  0  0  0  0  0  0  0  0  0  0  0
    6.4645    6.5780    2.0153 C   0  0  0  0  0  0  0  0  0  0  0  0
    3.1210    4.8999    3.0290 C   0  0  0  0  0  0  0  0  0  0  0  0
    6.9210    3.3109    2.6844 C   0  0  0  0  0  0  0  0  0  0  0  0
    6.4257    6.7640    0.5146 C   0  0  0  0  0  0  0  0  0  0  0  0
    1.6683    5.0982    2.5993 C   0  0  0  0  0  0  0  0  0  0  0  0
    3.2647    5.0461    4.5443 C   0  0  0  0  0  0  0  0  0  0  0  0
    6.7979    1.8182    2.3530 C   0  0  0  0  0  0  0  0  0  0  0  0
    8.3431    3.7877    2.4057 C   0  0  0  0  0  0  0  0  0  0  0  0
    1.0633    6.3828    3.1417 C   0  0  0  0  0  0  0  0  0  0  0  0
    2.6372    6.3215    5.0823 C   0  0  0  0  0  0  0  0  0  0  0  0
    8.0877    1.0486    2.6121 C   0  0  0  0  0  0  0  0  0  0  0  0
    9.3498    3.1026    3.3208 C   0  0  0  0  0  0  0  0  0  0  0  0
    1.1841    6.4444    4.6552 C   0  0  0  0  0  0  0  0  0  0  0  0
    8.9211    1.6916    3.7056 C   0  0  0  0  0  0  0  0  0  0  0  0
  1  2  1  0  0  0  0 
  1  3  1  0  0  0  0 
  1  4  1  0  0  0  0 
  2  5  1  0  0  0  0 
  3  6  1  0  0  0  0 
  4  7  1  0  0  0  0 
  5  8  1  0  0  0  0 
  9  5  1  0  0  0  0 
 10  6  1  0  0  0  0 
  6 11  1  0  0  0  0 
  8 12  1  0  0  0  0 
 13  9  1  0  0  0  0 
 14 10  1  0  0  0  0 
 11 15  1  0  0  0  0 
 12 16  1  0  0  0  0 
 16 13  1  0  0  0  0 
 17 14  1  0  0  0  0 
 15 17  1  0  0  0  0 
M  END
> <Name>
CYCLOHEXANE, 1,1'-(2-ETHYL-1,3-PROPANEDIYL)BIS-

> <Source>
NIST3DMolFile

> <Tox>
306

> <CAS>
54833-34-0

$$$$

  CDK

 15 16  0  0  0  0  0  0  0  0999 V2000
    5.9432    2.3832    3.4920 C   0  0  0  0  0  0  0  0  0  0  0  0
    4.5714    2.9027    3.9399 C   0  0  0  0  0  0  0  0  0  0  0  0
    6.5546    3.1759    2.3578 C   0  0  0  0  0  0  0  0  0  0  0  0
    4.3586    2.6421    5.4506 C   0  0  0  0  0  0  0  0  0  0  0  0
    3.3929    2.2795    3.1612 C   0  0  0  0  0  0  0  0  0  0  0  0
    4.4285    1.1589    5.8065 C   0  0  0  0  0  0  0  0  0  0  0  0
    5.3498    3.4350    6.3035 C   0  0  0  0  0  0  0  0  0  0  0  0
    3.5088    2.3945    1.6453 C   0  0  0  0  0  0  0  0  0  0  0  0
    2.0695    2.9314    3.5831 C   0  0  0  0  0  0  0  0  0  0  0  0
    3.9653    0.9169    7.2371 C   0  0  0  0  0  0  0  0  0  0  0  0
    5.5032    2.8558    7.7054 C   0  0  0  0  0  0  0  0  0  0  0  0
    2.4389    1.5626    0.9462 C   0  0  0  0  0  0  0  0  0  0  0  0
    0.9026    2.5467    2.6800 C   0  0  0  0  0  0  0  0  0  0  0  0
    4.2643    2.0993    8.1519 C   0  0  0  0  0  0  0  0  0  0  0  0
    1.2069    1.3383    1.8132 C   0  0  0  0  0  0  0  0  0  0  0  0
  1  2  1  0  0  0  0 
  1  3  1  0  0  0  0 
  2  4  1  0  0  0  0 
  2  5  1  0  0  0  0 
  6  4  1  0  0  0  0 
  4  7  1  0  0  0  0 
  8  5  1  0  0  0  0 
  9  5  1  0  0  0  0 
  6 10  1  0  0  0  0 
  7 11  1  0  0  0  0 
  8 12  1  0  0  0  0 
 13  9  1  0  0  0  0 
 10 14  1  0  0  0  0 
 14 11  1  0  0  0  0 
 12 15  1  0  0  0  0 
 15 13  1  0  0  0  0 
M  END
> <Name>
CYCLOHEXANE, 1,1'-PROPYLIDENEBIS-

> <Source>
NIST3DMolFile

> <Tox>
283.6

> <CAS>
54934-91-7

$$$$

  CDK

 14 13  0  0  0  0  0  0  0  0999 V2000
   -7.0748    1.0183   -0.0702 Cl  0  0  0  0  0  0  0  0  0  0  0  0
   -5.7510   -0.1172   -0.0497 C   0  0  0  0  0  0  0  0  0  0  0  0
   -4.5199    0.4977   -0.0188 O   0  0  0  0  0  0  0  0  0  0  0  0
   -5.8849   -1.3373   -0.0610 O   0  0  0  0  0  0  0  0  0  0  0  0
   -3.3853   -0.3565    0.0001 C   0  0  0  0  0  0  0  0  0  0  0  0
   -2.1088    0.4751    0.0335 C   0  0  0  0  0  0  0  0  0  0  0  0
   -0.8504   -0.3970    0.0752 C   0  0  0  0  0  0  0  0  0  0  0  0
    0.4188    0.4591    0.0746 C   0  0  0  0  0  0  0  0  0  0  0  0
    1.6753   -0.4141    0.0861 C   0  0  0  0  0  0  0  0  0  0  0  0
    2.9769    0.3921    0.1164 C   0  0  0  0  0  0  0  0  0  0  0  0
    4.2337   -0.4786    0.0531 C   0  0  0  0  0  0  0  0  0  0  0  0
    5.5003    0.3798    0.0128 C   0  0  0  0  0  0  0  0  0  0  0  0
    6.7560   -0.4859   -0.0890 C   0  0  0  0  0  0  0  0  0  0  0  0
    8.0140    0.3645   -0.1631 C   0  0  0  0  0  0  0  0  0  0  0  0
  1  2  1  0  0  0  0 
  3  2  1  0  0  0  0 
  4  2  2  0  0  0  0 
  3  5  1  0  0  0  0 
  6  5  1  0  0  0  0 
  7  6  1  0  0  0  0 
  8  7  1  0  0  0  0 
  9  8  1  0  0  0  0 
  9 10  1  0  0  0  0 
 10 11  1  0  0  0  0 
 11 12  1  0  0  0  0 
 12 13  1  0  0  0  0 
 13 14  1  0  0  0  0 
M  END
> <Name>
n-Decyl Chloroformate

> <Source>
Chemidplus3DMolFile

> <Tox>
220

> <CAS>
55488-51-2

$$$$

  CDK

  9  9  0  0  0  0  0  0  0  0999 V2000
    2.4934    0.8651    0.0000 C   0  0  0  0  0  0  0  0  0  0  0  0
    1.5266    0.8651    0.0000 C   0  0  0  0  0  0  0  0  0  0  0  0
    3.0023    1.7301    0.0000 C   0  0  0  0  0  0  0  0  0  0  0  0
    3.0023    0.0000    0.0000 Cl  0  0  0  0  0  0  0  0  0  0  0  0
    1.0177    1.7301    0.0000 C   0  0  0  0  0  0  0  0  0  0  0  0
    0.9668    0.0000    0.0000 Cl  0  0  0  0  0  0  0  0  0  0  0  0
    2.4934    2.5952    0.0000 C   0  0  0  0  0  0  0  0  0  0  0  0
    1.5266    2.5952    0.0000 C   0  0  0  0  0  0  0  0  0  0  0  0
    0.0000    1.7301    0.0000 Br  0  0  0  0  0  0  0  0  0  0  0  0
  2  1  2  0  0  0  0 
  1  3  1  0  0  0  0 
  1  4  1  0  0  0  0 
  5  2  1  0  0  0  0 
  2  6  1  0  0  0  0 
  3  7  2  0  0  0  0 
  8  5  2  0  0  0  0 
  5  9  1  0  0  0  0 
  7  8  1  0  0  0  0 
M  END
> <Name>
1-BROMO-2,3-DICHLOROBENZENE

> <Source>
NIST2DMolFile

> <Tox>
245

> <CAS>
56961-77-4

$$$$

  CDK

 11 11  0  0  0  0  0  0  0  0999 V2000
    0.0000   -0.4400    0.0000 C   0  0  0  0  0  0  0  0  0  0  0  0
    0.7145   -0.0275    0.0000 C   0  0  0  0  0  0  0  0  0  0  0  0
   -0.7145   -0.0275    0.0000 C   0  0  0  0  0  0  0  0  0  0  0  0
   -0.0000   -1.2650    0.0000 C   0  0  0  0  0  0  0  0  0  0  0  0
    0.7145    0.7975    0.0000 C   0  0  0  0  0  0  0  0  0  0  0  0
   -0.7145    0.7975    0.0000 C   0  0  0  0  0  0  0  0  0  0  0  0
    0.8250   -1.2650    0.0000 Cl  0  0  0  0  0  0  0  0  0  0  0  0
   -0.8250   -1.2650    0.0000 Cl  0  0  0  0  0  0  0  0  0  0  0  0
    0.0000    1.2100    0.0000 C   0  0  0  0  0  0  0  0  0  0  0  0
   -1.4289    1.2100    0.0000 Cl  0  0  0  0  0  0  0  0  0  0  0  0
    0.0000    2.0350    0.0000 Cl  0  0  0  0  0  0  0  0  0  0  0  0
  1  2  1  0  0  0  0 
  1  3  2  0  0  0  0 
  1  4  1  0  0  0  0 
  2  5  2  0  0  0  0 
  6  3  1  0  0  0  0 
  4  7  1  0  0  0  0 
  4  8  1  0  0  0  0 
  5  9  1  0  0  0  0 
  9  6  2  0  0  0  0 
  6 10  1  0  0  0  0 
  9 11  1  0  0  0  0 
M  END
> <Name>
Benzene, 1,2-dichloro-4-(dichloromethyl)-

> <Source>
Smiles

> <Tox>
257

> <CAS>
56961-84-3

$$$$

  CDK

 10 10  0  0  0  0  0  0  0  0999 V2000
    0.3334   -1.4575    0.0000 Cl  0  0  0  0  0  0  0  0  0  0  0  0
    0.3334   -0.6325    0.0000 C   0  0  0  0  0  0  0  0  0  0  0  0
    1.0479   -0.2200    0.0000 C   0  0  0  0  0  0  0  0  0  0  0  0
   -0.3811   -0.2200    0.0000 C   0  0  0  0  0  0  0  0  0  0  0  0
    1.7624   -0.6325    0.0000 Cl  0  0  0  0  0  0  0  0  0  0  0  0
    1.0479    0.6050    0.0000 C   0  0  0  0  0  0  0  0  0  0  0  0
   -0.3811    0.6050    0.0000 C   0  0  0  0  0  0  0  0  0  0  0  0
   -1.0955   -0.6325    0.0000 C   0  0  0  0  0  0  0  0  0  0  0  0
    0.3334    1.0175    0.0000 C   0  0  0  0  0  0  0  0  0  0  0  0
    0.3334    1.8425    0.0000 Cl  0  0  0  0  0  0  0  0  0  0  0  0
  1  2  1  0  0  0  0 
  2  3  1  0  0  0  0 
  2  4  2  0  0  0  0 
  3  5  1  0  0  0  0 
  3  6  2  0  0  0  0 
  7  4  1  0  0  0  0 
  4  8  1  0  0  0  0 
  6  9  1  0  0  0  0 
  9  7  2  0  0  0  0 
  9 10  1  0  0  0  0 
M  END
> <Name>
2,3,5-Trichlorotoluene

> <Source>
Smiles

> <Tox>
230

> <CAS>
56961-86-5

$$$$

  CDK

 13 14  0  0  0  0  0  0  0  0999 V2000
   -0.3390    0.4125    0.0000 C   0  0  0  0  0  0  0  0  0  0  0  0
   -1.1236    0.6674    0.0000 C   0  0  0  0  0  0  0  0  0  0  0  0
   -0.3390   -0.4125    0.0000 C   0  0  0  0  0  0  0  0  0  0  0  0
    0.3755    0.8250    0.0000 C   0  0  0  0  0  0  0  0  0  0  0  0
   -1.3785    1.4521    0.0000 O   0  0  0  0  0  0  0  0  0  0  0  0
   -1.6085   -0.0000    0.0000 O   0  0  0  0  0  0  0  0  0  0  0  0
   -1.1236   -0.6674    0.0000 C   0  0  0  0  0  0  0  0  0  0  0  0
    0.3755   -0.8250    0.0000 C   0  0  0  0  0  0  0  0  0  0  0  0
    1.0900    0.4125    0.0000 C   0  0  0  0  0  0  0  0  0  0  0  0
   -1.3785   -1.4521    0.0000 O   0  0  0  0  0  0  0  0  0  0  0  0
    0.3755   -1.6500    0.0000 Cl  0  0  0  0  0  0  0  0  0  0  0  0
    1.0900   -0.4125    0.0000 C   0  0  0  0  0  0  0  0  0  0  0  0
    1.8044   -0.8250    0.0000 Cl  0  0  0  0  0  0  0  0  0  0  0  0
  1  2  1  0  0  0  0 
  1  3  1  0  0  0  0 
  1  4  2  0  0  0  0 
  2  5  2  0  0  0  0 
  2  6  1  0  0  0  0 
  7  3  1  0  0  0  0 
  3  8  2  0  0  0  0 
  9  4  1  0  0  0  0 
  6  7  1  0  0  0  0 
  7 10  2  0  0  0  0 
  8 11  1  0  0  0  0 
  8 12  1  0  0  0  0 
 12  9  2  0  0  0  0 
 12 13  1  0  0  0  0 
M  END
> <Name>
4,5-Dichloro-isobenzofuran-1,3-dione

> <Source>
Smiles

> <Tox>
329

> <CAS>
56962-07-3

$$$$

  CDK

 10  9  0  0  0  0  0  0  0  0999 V2000
    0.8689    0.8639    0.0000 C   0  0  0  0  0  0  0  0  0  0  0  0
    0.3638    1.7329    0.0000 F   0  0  0  0  0  0  0  0  0  0  0  0
    1.7329    1.3691    0.0000 C   0  0  0  0  0  0  0  0  0  0  0  0
    1.3641    0.0000    0.0000 F   0  0  0  0  0  0  0  0  0  0  0  0
    0.0000    0.3687    0.0000 F   0  0  0  0  0  0  0  0  0  0  0  0
    2.5968    0.8689    0.0000 O   0  0  0  0  0  0  0  0  0  0  0  0
    1.7279    2.3695    0.0000 F   0  0  0  0  0  0  0  0  0  0  0  0
    3.4608    1.3742    0.0000 C   0  0  0  0  0  0  0  0  0  0  0  0
    3.4558    2.3746    0.0000 F   0  0  0  0  0  0  0  0  0  0  0  0
    4.3247    0.8740    0.0000 F   0  0  0  0  0  0  0  0  0  0  0  0
  1  2  1  0  0  0  0 
  1  3  1  0  0  0  0 
  1  4  1  0  0  0  0 
  1  5  1  0  0  0  0 
  3  6  1  0  0  0  0 
  3  7  1  0  0  0  0 
  6  8  1  0  0  0  0 
  8  9  1  0  0  0  0 
  8 10  1  0  0  0  0 
M  END
> <Name>
Desflurane

> <Source>
NIST2DMolFile

> <Tox>
23.5

> <CAS>
57041-67-5

$$$$

  CDK

 12 11  0  0  0  0  0  0  0  0999 V2000
    2.6354   -0.1985    0.0000 F   0  0  0  0  0  0  0  0  0  0  0  0
    1.8104   -0.1985    0.0000 C   0  0  0  0  0  0  0  0  0  0  0  0
    1.8104   -1.0235    0.0000 F   0  0  0  0  0  0  0  0  0  0  0  0
    1.8104    0.6265    0.0000 F   0  0  0  0  0  0  0  0  0  0  0  0
    0.9854   -0.1985    0.0000 C   0  0  0  0  0  0  0  0  0  0  0  0
    0.9854   -1.0235    0.0000 F   0  0  0  0  0  0  0  0  0  0  0  0
    0.1604   -0.1985    0.0000 C   0  0  0  0  0  0  0  0  0  0  0  0
    0.1604   -1.0235    0.0000 F   0  0  0  0  0  0  0  0  0  0  0  0
    0.1604    0.6265    0.0000 F   0  0  0  0  0  0  0  0  0  0  0  0
   -0.6646   -0.1985    0.0000 C   0  0  0  0  0  0  0  0  0  0  0  0
   -1.4896   -0.1985    0.0000 O   0  0  0  0  0  0  0  0  0  0  0  0
   -1.9021    0.5160    0.0000 C   0  0  0  0  0  0  0  0  0  0  0  0
  1  2  1  0  0  0  0 
  2  3  1  0  0  0  0 
  2  4  1  0  0  0  0 
  2  5  1  0  0  0  0 
  5  6  1  0  0  0  0 
  5  7  1  0  0  0  0 
  7  8  1  0  0  0  0 
  7  9  1  0  0  0  0 
  7 10  1  0  0  0  0 
 10 11  1  0  0  0  0 
 11 12  1  0  0  0  0 
M  END
> <Name>
1,1,1,2,3,3-Hexafluoro-4-methoxybutane

> <Source>
Smiles

> <Tox>
87.5

> <CAS>
58705-93-4

$$$$

  CDK

 19 20  0  0  0  0  0  0  0  0999 V2000
    2.6219    0.0000    0.0000 C   0  0  0  0  0  0  0  0  0  0  0  0
    3.5295    0.4538    0.0000 C   0  0  0  0  0  0  0  0  0  0  0  0
    1.7648    0.4538    0.0000 C   0  0  0  0  0  0  0  0  0  0  0  0
    3.5295    1.4622    0.0000 C   0  0  0  0  0  0  0  0  0  0  0  0
    1.7648    1.4622    0.0000 C   0  0  0  0  0  0  0  0  0  0  0  0
    0.9076    0.0000    0.0000 C   0  0  0  0  0  0  0  0  0  0  0  0
    2.6219    1.9160    0.0000 C   0  0  0  0  0  0  0  0  0  0  0  0
    4.3867    2.0169    0.0000 C   0  0  0  0  0  0  0  0  0  0  0  0
    0.9076    1.9160    0.0000 C   0  0  0  0  0  0  0  0  0  0  0  0
    0.0000    0.4538    0.0000 C   0  0  0  0  0  0  0  0  0  0  0  0
    5.2943    1.5126    0.0000 C   0  0  0  0  0  0  0  0  0  0  0  0
    0.0000    1.4622    0.0000 C   0  0  0  0  0  0  0  0  0  0  0  0
    6.1514    2.0169    0.0000 C   0  0  0  0  0  0  0  0  0  0  0  0
    7.0086    1.5631    0.0000 C   0  0  0  0  0  0  0  0  0  0  0  0
    7.8657    2.0673    0.0000 C   0  0  0  0  0  0  0  0  0  0  0  0
    8.7733    1.6135    0.0000 C   0  0  0  0  0  0  0  0  0  0  0  0
    9.6305    2.1177    0.0000 C   0  0  0  0  0  0  0  0  0  0  0  0
   10.5381    1.6639    0.0000 C   0  0  0  0  0  0  0  0  0  0  0  0
   11.3952    2.1681    0.0000 C   0  0  0  0  0  0  0  0  0  0  0  0
  2  1  2  0  0  0  0 
  1  3  1  0  0  0  0 
  4  2  1  0  0  0  0 
  5  3  2  0  0  0  0 
  3  6  1  0  0  0  0 
  7  4  2  0  0  0  0 
  4  8  1  0  0  0  0 
  5  7  1  0  0  0  0 
  9  5  1  0  0  0  0 
  6 10  2  0  0  0  0 
  8 11  1  0  0  0  0 
 12  9  2  0  0  0  0 
 10 12  1  0  0  0  0 
 13 11  1  0  0  0  0 
 13 14  1  0  0  0  0 
 14 15  1  0  0  0  0 
 16 15  1  0  0  0  0 
 16 17  1  0  0  0  0 
 17 18  1  0  0  0  0 
 18 19  1  0  0  0  0 
M  END
> <Name>
2-N-NONYLNAPHTHALENE

> <Source>
NIST2DMolFile

> <Tox>
372

> <CAS>
61886-67-7

$$$$

  CDK

 10  9  0  0  0  0  0  0  0  0999 V2000
    1.3992    5.0372    0.0000 C   0  0  0  0  0  0  0  0  0  0  0  0
    0.0000    5.0372    0.0000 O   0  0  0  0  0  0  0  0  0  0  0  0
    2.0988    3.8245    0.0000 C   0  0  0  0  0  0  0  0  0  0  0  0
    3.4981    3.8245    0.0000 C   0  0  0  0  0  0  0  0  0  0  0  0
    4.1977    2.6119    0.0000 C   0  0  0  0  0  0  0  0  0  0  0  0
    5.5969    2.6119    0.0000 C   0  0  0  0  0  0  0  0  0  0  0  0
    6.2965    1.3992    0.0000 C   0  0  0  0  0  0  0  0  0  0  0  0
    7.6957    1.3992    0.0000 F   0  0  0  0  0  0  0  0  0  0  0  0
    6.5297    0.0000    0.0000 F   0  0  0  0  0  0  0  0  0  0  0  0
    4.9439    0.9328    0.0000 F   0  0  0  0  0  0  0  0  0  0  0  0
  1  2  1  0  0  0  0 
  1  3  1  0  0  0  0 
  3  4  1  0  0  0  0 
  4  5  1  0  0  0  0 
  5  6  1  0  0  0  0 
  6  7  1  0  0  0  0 
  7  8  1  0  0  0  0 
  7  9  1  0  0  0  0 
  7 10  1  0  0  0  0 
M  END
> <Name>
6,6,6-TRIFLUORO-1-HEXANOL

> <Source>
IndexNet2DMolFile

> <Tox>
165.75

> <CAS>
65611-47-4

$$$$

  CDK

 12 11  0  0  0  0  0  0  0  0999 V2000
    2.0402    1.4561    0.0000 O   0  0  0  0  0  0  0  0  0  0  0  0
    2.4527    0.7416    0.0000 C   0  0  0  0  0  0  0  0  0  0  0  0
    2.0402    0.0272    0.0000 O   0  0  0  0  0  0  0  0  0  0  0  0
    3.2777    0.7416    0.0000 C   0  0  0  0  0  0  0  0  0  0  0  0
    1.2152    0.0272    0.0000 C   0  0  0  0  0  0  0  0  0  0  0  0
    0.3902    0.0272    0.0000 C   0  0  0  0  0  0  0  0  0  0  0  0
    1.2152   -0.7978    0.0000 C   0  0  0  0  0  0  0  0  0  0  0  0
   -0.4348    0.0272    0.0000 C   0  0  0  0  0  0  0  0  0  0  0  0
   -1.2598    0.0272    0.0000 C   0  0  0  0  0  0  0  0  0  0  0  0
   -2.0848    0.0272    0.0000 C   0  0  0  0  0  0  0  0  0  0  0  0
   -2.0848   -0.7978    0.0000 C   0  0  0  0  0  0  0  0  0  0  0  0
   -2.9098    0.0272    0.0000 C   0  0  0  0  0  0  0  0  0  0  0  0
  1  2  2  0  0  0  0 
  2  3  1  0  0  0  0 
  2  4  1  0  0  0  0 
  3  5  1  0  0  0  0 
  5  6  1  0  0  0  0 
  5  7  1  0  0  0  0 
  6  8  1  0  0  0  0 
  8  9  1  0  0  0  0 
  9 10  1  0  0  0  0 
 10 11  1  0  0  0  0 
 10 12  1  0  0  0  0 
M  END
> <Name>
6-METHYL-2-HEPTANOL ACETATE

> <Source>
Smiles

> <Tox>
187

> <CAS>
67952-57-2

$$$$

  CDK

  9  8  0  0  0  0  0  0  0  0999 V2000
   -1.8333   -0.6640    0.0000 O   0  0  0  0  0  0  0  0  0  0  0  0
   -1.0083   -0.6640    0.0000 C   0  0  0  0  0  0  0  0  0  0  0  0
   -1.0083    0.1610    0.0000 C   0  0  0  0  0  0  0  0  0  0  0  0
   -0.1833   -0.6640    0.0000 C   0  0  0  0  0  0  0  0  0  0  0  0
   -1.0083    0.9860    0.0000 C   0  0  0  0  0  0  0  0  0  0  0  0
    0.6417   -0.6640    0.0000 C   0  0  0  0  0  0  0  0  0  0  0  0
   -1.0083    1.8110    0.0000 C   0  0  0  0  0  0  0  0  0  0  0  0
    1.4667   -0.6640    0.0000 C   0  0  0  0  0  0  0  0  0  0  0  0
    2.2917   -0.6640    0.0000 C   0  0  0  0  0  0  0  0  0  0  0  0
  1  2  1  0  0  0  0 
  2  3  1  0  0  0  0 
  2  4  1  0  0  0  0 
  3  5  1  0  0  0  0 
  4  6  1  0  0  0  0 
  5  7  1  0  0  0  0 
  6  8  1  0  0  0  0 
  8  9  1  0  0  0  0 
M  END
> <Name>
4-Octanol, (.+-.)-

> <Source>
Smiles

> <Tox>
176.3

> <CAS>
74778-22-6

$$$$

  CDK

 19 20  0  0  0  0  0  0  0  0999 V2000
    2.4156    0.7080    0.0000 C   0  0  0  0  0  0  0  0  0  0  0  0
    3.6233    0.0000    0.0000 O   0  0  0  0  0  0  0  0  0  0  0  0
    4.8311    0.7080    0.0000 N   0  0  0  0  0  0  0  0  0  0  0  0
    4.8311    2.0824    0.0000 C   0  0  0  0  0  0  0  0  0  0  0  0
    6.0389    2.7904    0.0000 C   0  0  0  0  0  0  0  0  0  0  0  0
    3.6233    2.7904    0.0000 C   0  0  0  0  0  0  0  0  0  0  0  0
    7.2467    2.0824    0.0000 C   0  0  0  0  0  0  0  0  0  0  0  0
    2.4156    2.0824    0.0000 C   0  0  0  0  0  0  0  0  0  0  0  0
    3.6233    4.2064    0.0000 C   0  0  0  0  0  0  0  0  0  0  0  0
    7.2467    0.7080    0.0000 C   0  0  0  0  0  0  0  0  0  0  0  0
    8.4544    2.7904    0.0000 C   0  0  0  0  0  0  0  0  0  0  0  0
    1.2078    2.7904    0.0000 C   0  0  0  0  0  0  0  0  0  0  0  0
    2.4156    4.8728    0.0000 C   0  0  0  0  0  0  0  0  0  0  0  0
    4.8311    4.8728    0.0000 Cl  0  0  0  0  0  0  0  0  0  0  0  0
    8.4544    0.0000    0.0000 C   0  0  0  0  0  0  0  0  0  0  0  0
    9.6622    2.0824    0.0000 N   0  0  0  0  0  0  0  0  0  0  0  0
    1.2078    4.2064    0.0000 C   0  0  0  0  0  0  0  0  0  0  0  0
    9.6622    0.7080    0.0000 C   0  0  0  0  0  0  0  0  0  0  0  0
    0.0000    4.8728    0.0000 Cl  0  0  0  0  0  0  0  0  0  0  0  0
  1  2  1  0  0  0  0 
  2  3  1  0  0  0  0 
  3  4  2  0  0  0  0 
  4  5  1  0  0  0  0 
  4  6  1  0  0  0  0 
  5  7  1  0  0  0  0 
  6  8  2  0  0  0  0 
  6  9  1  0  0  0  0 
  7 10  2  0  0  0  0 
  7 11  1  0  0  0  0 
  8 12  1  0  0  0  0 
 13  9  2  0  0  0  0 
  9 14  1  0  0  0  0 
 10 15  1  0  0  0  0 
 16 11  2  0  0  0  0 
 12 17  2  0  0  0  0 
 17 13  1  0  0  0  0 
 15 18  2  0  0  0  0 
 18 16  1  0  0  0  0 
 17 19  1  0  0  0  0 
M  END
> <Name>
PYRIFENOX

> <Source>
IndexNet2DMolFile

> <Tox>
212.1

> <CAS>
88283-41-4

$$$$

  CDK

  8  7  0  0  0  0  0  0  0  0999 V2000
    0.0000    1.3992    0.0000 C   0  0  0  0  0  0  0  0  0  0  0  0
    0.6996    2.6119    0.0000 C   0  0  0  0  0  0  0  0  0  0  0  0
    0.0000    3.8245    0.0000 O   0  0  0  0  0  0  0  0  0  0  0  0
    2.0988    2.6119    0.0000 C   0  0  0  0  0  0  0  0  0  0  0  0
    2.7984    1.3992    0.0000 C   0  0  0  0  0  0  0  0  0  0  0  0
    4.1977    1.3992    0.0000 F   0  0  0  0  0  0  0  0  0  0  0  0
    3.0316    0.0000    0.0000 F   0  0  0  0  0  0  0  0  0  0  0  0
    1.4925    0.9328    0.0000 F   0  0  0  0  0  0  0  0  0  0  0  0
  1  2  1  0  0  0  0 
  2  3  1  0  0  0  0 
  2  4  1  0  0  0  0 
  4  5  1  0  0  0  0 
  5  6  1  0  0  0  0 
  5  7  1  0  0  0  0 
  5  8  1  0  0  0  0 
M  END
> <Name>
4,4,4-TRIFLUORO-2-BUTANOL

> <Source>
IndexNet2DMolFile

> <Tox>
99.85

> <CAS>
101054-93-7

$$$$

  CDK

 26 27  0  0  0  0  0  0  0  0999 V2000
    4.0271   -2.6608    0.0000 N   0  0  0  0  0  0  0  0  0  0  0  0
    5.1777   -1.9704    0.0000 C   0  0  0  0  0  0  0  0  0  0  0  0
    2.7615   -2.2293    0.0000 C   0  0  0  0  0  0  0  0  0  0  0  0
    4.0271   -3.9840    0.0000 N   0  0  0  0  0  0  0  0  0  0  0  0
    6.3283   -2.6608    0.0000 C   0  0  0  0  0  0  0  0  0  0  0  0
    5.1777   -0.6472    0.0000 C   0  0  0  0  0  0  0  0  0  0  0  0
    1.9704   -3.2936    0.0000 N   0  0  0  0  0  0  0  0  0  0  0  0
    2.3587   -0.9636    0.0000 O   0  0  0  0  0  0  0  0  0  0  0  0
    2.7615   -4.4011    0.0000 C   0  0  0  0  0  0  0  0  0  0  0  0
    7.4789   -1.9704    0.0000 C   0  0  0  0  0  0  0  0  0  0  0  0
    6.3283   -0.0000    0.0000 C   0  0  0  0  0  0  0  0  0  0  0  0
    4.0271   -0.0000    0.0000 F   0  0  0  0  0  0  0  0  0  0  0  0
    0.6472   -3.2936    0.0000 C   0  0  0  0  0  0  0  0  0  0  0  0
    2.3587   -5.6380    0.0000 C   0  0  0  0  0  0  0  0  0  0  0  0
    7.4789   -0.6472    0.0000 C   0  0  0  0  0  0  0  0  0  0  0  0
    8.6152   -2.6608    0.0000 C   0  0  0  0  0  0  0  0  0  0  0  0
    0.0000   -2.1574    0.0000 F   0  0  0  0  0  0  0  0  0  0  0  0
    0.0000   -4.4586    0.0000 F   0  0  0  0  0  0  0  0  0  0  0  0
    8.6152   -0.0000    0.0000 Cl  0  0  0  0  0  0  0  0  0  0  0  0
    9.7802   -1.9704    0.0000 C   0  0  0  0  0  0  0  0  0  0  0  0
   10.9164   -2.6608    0.0000 C   0  0  0  0  0  0  0  0  0  0  0  0
    9.7802   -0.6472    0.0000 Cl  0  0  0  0  0  0  0  0  0  0  0  0
   12.0814   -1.9704    0.0000 O   0  0  0  0  0  0  0  0  0  0  0  0
   10.9164   -3.9840    0.0000 O   0  0  0  0  0  0  0  0  0  0  0  0
   13.2176   -2.6608    0.0000 C   0  0  0  0  0  0  0  0  0  0  0  0
   14.3826   -1.9704    0.0000 C   0  0  0  0  0  0  0  0  0  0  0  0
  1  2  1  0  0  0  0 
  1  3  1  0  0  0  0 
  1  4  1  0  0  0  0 
  2  5  2  0  0  0  0 
  2  6  1  0  0  0  0 
  3  7  1  0  0  0  0 
  3  8  2  0  0  0  0 
  4  9  2  0  0  0  0 
  5 10  1  0  0  0  0 
  6 11  2  0  0  0  0 
  6 12  1  0  0  0  0 
  7 13  1  0  0  0  0 
  7  9  1  0  0  0  0 
  9 14  1  0  0  0  0 
 10 15  2  0  0  0  0 
 10 16  1  0  0  0  0 
 11 15  1  0  0  0  0 
 13 17  1  0  0  0  0 
 13 18  1  0  0  0  0 
 15 19  1  0  0  0  0 
 16 20  1  0  0  0  0 
 20 21  1  0  0  0  0 
 20 22  1  0  0  0  0 
 21 23  1  0  0  0  0 
 21 24  2  0  0  0  0 
 23 25  1  0  0  0  0 
 25 26  1  0  0  0  0 
M  END
> <Name>
Carfentrazone-ethyl

> <Source>
DSSTox2DMolFile

> <Tox>
352.5

> <CAS>
128639-02-1

$$$$
