
  CDK

 18 21  0  0  0  0  0  0  0  0999 V2000
    4.6014   -2.6754    0.0000 C   0  0  0  0  0  0  0  0  0  0  0  0
    3.4571   -2.0066    0.0000 C   0  0  0  0  0  0  0  0  0  0  0  0
    4.6014   -3.9970    0.0000 C   0  0  0  0  0  0  0  0  0  0  0  0
    5.7538   -2.0066    0.0000 C   0  0  0  0  0  0  0  0  0  0  0  0
    2.3047   -2.6754    0.0000 C   0  0  0  0  0  0  0  0  0  0  0  0
    3.4571   -4.6659    0.0000 C   0  0  0  0  0  0  0  0  0  0  0  0
    5.7538   -4.6659    0.0000 C   0  0  0  0  0  0  0  0  0  0  0  0
    6.9061   -2.6754    0.0000 C   0  0  0  0  0  0  0  0  0  0  0  0
    5.7538   -0.6769    0.0000 C   0  0  0  0  0  0  0  0  0  0  0  0
    1.1524   -2.0066    0.0000 C   0  0  0  0  0  0  0  0  0  0  0  0
    2.3047   -3.9970    0.0000 C   0  0  0  0  0  0  0  0  0  0  0  0
    6.9061   -3.9970    0.0000 C   0  0  0  0  0  0  0  0  0  0  0  0
    8.0585   -2.0146    0.0000 C   0  0  0  0  0  0  0  0  0  0  0  0
    6.9061   -0.0000    0.0000 C   0  0  0  0  0  0  0  0  0  0  0  0
    0.0000   -2.6754    0.0000 C   0  0  0  0  0  0  0  0  0  0  0  0
    1.1524   -4.6659    0.0000 C   0  0  0  0  0  0  0  0  0  0  0  0
    8.0585   -0.6769    0.0000 C   0  0  0  0  0  0  0  0  0  0  0  0
    0.0000   -3.9970    0.0000 C   0  0  0  0  0  0  0  0  0  0  0  0
  1  2  2  0  0  0  0 
  1  3  1  0  0  0  0 
  1  4  1  0  0  0  0 
  2  5  1  0  0  0  0 
  3  6  2  0  0  0  0 
  3  7  1  0  0  0  0 
  4  8  2  0  0  0  0 
  4  9  1  0  0  0  0 
  5 10  1  0  0  0  0 
  5 11  2  0  0  0  0 
  6 11  1  0  0  0  0 
  7 12  2  0  0  0  0 
  8 12  1  0  0  0  0 
  8 13  1  0  0  0  0 
  9 14  2  0  0  0  0 
 10 15  2  0  0  0  0 
 11 16  1  0  0  0  0 
 13 17  2  0  0  0  0 
 14 17  1  0  0  0  0 
 15 18  1  0  0  0  0 
 16 18  2  0  0  0  0 
M  END
> <Name>
BENZ(A)ANTHRACENE

> <Source>
DSSTox2DMolFile

> <Tox>
-6.678

> <CAS>
56-55-3

$$$$

  CDK

 18 17  0  0  0  0  0  0  0  0999 V2000
   15.0190   -0.0000    0.0000 O   0  0  0  0  0  0  0  0  0  0  0  0
   16.1623   -0.6756    0.0000 C   0  0  0  0  0  0  0  0  0  0  0  0
   17.3229   -0.0000    0.0000 O   0  0  0  0  0  0  0  0  0  0  0  0
   16.1623   -2.0095    0.0000 C   0  0  0  0  0  0  0  0  0  0  0  0
   15.0190   -2.6677    0.0000 C   0  0  0  0  0  0  0  0  0  0  0  0
   13.8583   -2.0095    0.0000 C   0  0  0  0  0  0  0  0  0  0  0  0
   12.6977   -2.6677    0.0000 C   0  0  0  0  0  0  0  0  0  0  0  0
   11.5544   -2.0095    0.0000 C   0  0  0  0  0  0  0  0  0  0  0  0
   10.3937   -2.6677    0.0000 C   0  0  0  0  0  0  0  0  0  0  0  0
    9.2331   -2.0095    0.0000 C   0  0  0  0  0  0  0  0  0  0  0  0
    8.0898   -2.6677    0.0000 C   0  0  0  0  0  0  0  0  0  0  0  0
    6.9292   -2.0095    0.0000 C   0  0  0  0  0  0  0  0  0  0  0  0
    5.7685   -2.6677    0.0000 C   0  0  0  0  0  0  0  0  0  0  0  0
    4.6252   -2.0095    0.0000 C   0  0  0  0  0  0  0  0  0  0  0  0
    3.4646   -2.6677    0.0000 C   0  0  0  0  0  0  0  0  0  0  0  0
    2.3039   -2.0095    0.0000 C   0  0  0  0  0  0  0  0  0  0  0  0
    1.1606   -2.6677    0.0000 C   0  0  0  0  0  0  0  0  0  0  0  0
    0.0000   -2.0095    0.0000 C   0  0  0  0  0  0  0  0  0  0  0  0
  1  2  1  0  0  0  0 
  2  3  2  0  0  0  0 
  2  4  1  0  0  0  0 
  4  5  1  0  0  0  0 
  5  6  1  0  0  0  0 
  6  7  1  0  0  0  0 
  7  8  1  0  0  0  0 
  8  9  1  0  0  0  0 
  9 10  1  0  0  0  0 
 10 11  1  0  0  0  0 
 11 12  1  0  0  0  0 
 12 13  1  0  0  0  0 
 13 14  1  0  0  0  0 
 14 15  1  0  0  0  0 
 15 16  1  0  0  0  0 
 16 17  1  0  0  0  0 
 17 18  1  0  0  0  0 
M  END
> <Name>
PALMITIC ACID

> <Source>
DSSTox2DMolFile

> <Tox>
-6.420

> <CAS>
57-10-3

$$$$

  CDK

 20 19  0  0  0  0  0  0  0  0999 V2000
    0.0000   -1.9917    0.0000 C   0  0  0  0  0  0  0  0  0  0  0  0
    1.1618   -1.3278    0.0000 C   0  0  0  0  0  0  0  0  0  0  0  0
    2.3029   -1.9917    0.0000 C   0  0  0  0  0  0  0  0  0  0  0  0
    3.4647   -1.3278    0.0000 C   0  0  0  0  0  0  0  0  0  0  0  0
    4.6057   -1.9917    0.0000 C   0  0  0  0  0  0  0  0  0  0  0  0
    5.7675   -1.3278    0.0000 C   0  0  0  0  0  0  0  0  0  0  0  0
    6.9086   -1.9917    0.0000 C   0  0  0  0  0  0  0  0  0  0  0  0
    8.0704   -1.3278    0.0000 C   0  0  0  0  0  0  0  0  0  0  0  0
    9.2115   -1.9917    0.0000 C   0  0  0  0  0  0  0  0  0  0  0  0
   10.3733   -1.3278    0.0000 C   0  0  0  0  0  0  0  0  0  0  0  0
   11.5351   -1.9917    0.0000 C   0  0  0  0  0  0  0  0  0  0  0  0
   12.6761   -1.3278    0.0000 C   0  0  0  0  0  0  0  0  0  0  0  0
   13.8379   -1.9917    0.0000 C   0  0  0  0  0  0  0  0  0  0  0  0
   14.9790   -1.3278    0.0000 C   0  0  0  0  0  0  0  0  0  0  0  0
   16.1408   -1.9917    0.0000 C   0  0  0  0  0  0  0  0  0  0  0  0
   17.2819   -1.3278    0.0000 C   0  0  0  0  0  0  0  0  0  0  0  0
   18.4437   -1.9917    0.0000 C   0  0  0  0  0  0  0  0  0  0  0  0
   19.5847   -1.3278    0.0000 C   0  0  0  0  0  0  0  0  0  0  0  0
   20.7465   -1.9917    0.0000 O   0  0  0  0  0  0  0  0  0  0  0  0
   19.5847   -0.0000    0.0000 O   0  0  0  0  0  0  0  0  0  0  0  0
  1  2  1  0  0  0  0 
  2  3  1  0  0  0  0 
  3  4  1  0  0  0  0 
  4  5  1  0  0  0  0 
  5  6  1  0  0  0  0 
  6  7  1  0  0  0  0 
  7  8  1  0  0  0  0 
  8  9  1  0  0  0  0 
  9 10  1  0  0  0  0 
 10 11  1  0  0  0  0 
 11 12  1  0  0  0  0 
 12 13  1  0  0  0  0 
 13 14  1  0  0  0  0 
 14 15  1  0  0  0  0 
 15 16  1  0  0  0  0 
 16 17  1  0  0  0  0 
 17 18  1  0  0  0  0 
 18 19  1  0  0  0  0 
 18 20  2  0  0  0  0 
M  END
> <Name>
STEARIC ACID

> <Source>
DSSTox2DMolFile

> <Tox>
-6.141

> <CAS>
57-11-4

$$$$

  CDK

  4  3  0  0  0  0  0  0  0  0999 V2000
    1.3292   -1.1518    0.0000 C   0  0  0  0  0  0  0  0  0  0  0  0
    1.9950   -0.0000    0.0000 N   0  0  0  0  0  0  0  0  0  0  0  0
    1.9950   -2.3037    0.0000 N   0  0  0  0  0  0  0  0  0  0  0  0
    0.0000   -1.1518    0.0000 O   0  0  0  0  0  0  0  0  0  0  0  0
  1  2  1  0  0  0  0 
  1  3  1  0  0  0  0 
  1  4  2  0  0  0  0 
M  END
> <Name>
UREA

> <Source>
DSSTox2DMolFile

> <Tox>
-4.921

> <CAS>
57-13-6

$$$$

  CDK

  4  3  0  0  0  0  0  0  0  0999 V2000
    1.9950   -0.0000    0.0000 C   0  0  0  0  0  0  0  0  0  0  0  0
    1.3292   -1.1518    0.0000 N   0  0  0  0  0  0  0  0  0  0  0  0
    1.9950   -2.3037    0.0000 C   0  0  0  0  0  0  0  0  0  0  0  0
    0.0000   -1.1518    0.0000 N   0  0  0  0  0  0  0  0  0  0  0  0
  1  2  1  0  0  0  0 
  2  3  1  0  0  0  0 
  2  4  1  0  0  0  0 
M  END
> <Name>
1,1-DIMETHYLHYDRAZINE

> <Source>
DSSTox2DMolFile

> <Tox>
2.212

> <CAS>
57-14-7

$$$$

  CDK

 15 16  0  0  0  0  0  0  0  0999 V2000
    4.6587   -2.3044    0.0000 N   0  0  0  0  0  0  0  0  0  0  0  0
    3.9903   -1.1472    0.0000 N   0  0  0  0  0  0  0  0  0  0  0  0
    5.9855   -2.3044    0.0000 C   0  0  0  0  0  0  0  0  0  0  0  0
    2.6635   -1.1472    0.0000 C   0  0  0  0  0  0  0  0  0  0  0  0
    6.6538   -1.1472    0.0000 C   0  0  0  0  0  0  0  0  0  0  0  0
    6.6538   -3.4516    0.0000 C   0  0  0  0  0  0  0  0  0  0  0  0
    1.9952   -2.3044    0.0000 C   0  0  0  0  0  0  0  0  0  0  0  0
    1.9952   -0.0000    0.0000 C   0  0  0  0  0  0  0  0  0  0  0  0
    7.9806   -1.1472    0.0000 C   0  0  0  0  0  0  0  0  0  0  0  0
    7.9806   -3.4516    0.0000 C   0  0  0  0  0  0  0  0  0  0  0  0
    0.6684   -2.3044    0.0000 C   0  0  0  0  0  0  0  0  0  0  0  0
    0.6684   -0.0000    0.0000 C   0  0  0  0  0  0  0  0  0  0  0  0
    8.6490   -2.3044    0.0000 C   0  0  0  0  0  0  0  0  0  0  0  0
    0.0000   -1.1472    0.0000 C   0  0  0  0  0  0  0  0  0  0  0  0
    9.9758   -2.3044    0.0000 N   0  0  0  0  0  0  0  0  0  0  0  0
  1  2  2  0  0  0  0 
  1  3  1  0  0  0  0 
  2  4  1  0  0  0  0 
  3  5  2  0  0  0  0 
  3  6  1  0  0  0  0 
  4  7  2  0  0  0  0 
  4  8  1  0  0  0  0 
  5  9  1  0  0  0  0 
 10  6  2  0  0  0  0 
  7 11  1  0  0  0  0 
 12  8  2  0  0  0  0 
  9 13  2  0  0  0  0 
 13 10  1  0  0  0  0 
 11 14  2  0  0  0  0 
 14 12  1  0  0  0  0 
 13 15  1  0  0  0  0 
M  END
> <Name>
P-PHENYLAZOANILINE

> <Source>
DSSTox2DMolFile

> <Tox>
-5.854

> <CAS>
60-09-3

$$$$

  CDK

  4  3  0  0  0  0  0  0  0  0999 V2000
    1.1483   -0.0000    0.0000 C   0  0  0  0  0  0  0  0  0  0  0  0
    2.3001   -0.6690    0.0000 C   0  0  0  0  0  0  0  0  0  0  0  0
    0.0000   -0.6690    0.0000 O   0  0  0  0  0  0  0  0  0  0  0  0
    3.4485   -0.0000    0.0000 S   0  0  0  0  0  0  0  0  0  0  0  0
  1  2  1  0  0  0  0 
  1  3  1  0  0  0  0 
  2  4  1  0  0  0  0 
M  END
> <Name>
Ethanol, 2-mercapto-

> <Source>
DSSTox2DMolFile

> <Tox>
0.246

> <CAS>
60-24-2

$$$$

  CDK

 19 23  0  0  0  0  0  0  0  0999 V2000
    1.2310   -2.6401    0.0000 C   0  0  0  0  0  0  0  0  0  0  0  0
    0.0000   -2.6401    0.0000 O   0  0  0  0  0  0  0  0  0  0  0  0
    0.6007   -3.6931    0.0000 C   0  0  0  0  0  0  0  0  0  0  0  0
    2.2470   -2.9219    0.0000 C   0  0  0  0  0  0  0  0  0  0  0  0
    1.7946   -3.9008    0.0000 C   0  0  0  0  0  0  0  0  0  0  0  0
    3.4113   -2.7068    0.0000 C   0  0  0  0  0  0  0  0  0  0  0  0
    2.1061   -5.0280    0.0000 C   0  0  0  0  0  0  0  0  0  0  0  0
    3.3001   -3.6931    0.0000 C   0  0  0  0  0  0  0  0  0  0  0  0
    4.8500   -2.0023    0.0000 C   0  0  0  0  0  0  0  0  0  0  0  0
    4.3902   -3.1295    0.0000 C   0  0  0  0  0  0  0  0  0  0  0  0
    6.3258   -2.7068    0.0000 C   0  0  0  0  0  0  0  0  0  0  0  0
    4.3902   -0.7787    0.0000 C   0  0  0  0  0  0  0  0  0  0  0  0
    5.6583   -1.1643    0.0000 Cl  0  0  0  0  0  0  0  0  0  0  0  0
    5.6954   -3.7599    0.0000 C   0  0  0  0  0  0  0  0  0  0  0  0
    3.9749   -4.3235    0.0000 Cl  0  0  0  0  0  0  0  0  0  0  0  0
    7.4159   -2.4250    0.0000 Cl  0  0  0  0  0  0  0  0  0  0  0  0
    5.1318   -0.0000    0.0000 Cl  0  0  0  0  0  0  0  0  0  0  0  0
    3.5522   -0.0742    0.0000 Cl  0  0  0  0  0  0  0  0  0  0  0  0
    6.1478   -4.8203    0.0000 Cl  0  0  0  0  0  0  0  0  0  0  0  0
  1  2  1  0  0  0  0 
  1  3  1  0  0  0  0 
  1  4  1  0  0  0  0 
  2  3  1  0  0  0  0 
  3  5  1  0  0  0  0 
  4  6  1  0  0  0  0 
  4  7  1  0  0  0  0 
  5  7  1  0  0  0  0 
  5  8  1  0  0  0  0 
  6  9  1  0  0  0  0 
  6  8  1  0  0  0  0 
  8 10  1  0  0  0  0 
  9 11  1  0  0  0  0 
  9 12  1  0  0  0  0 
  9 13  1  0  0  0  0 
 10 14  1  0  0  0  0 
 10 12  1  0  0  0  0 
 10 15  1  0  0  0  0 
 14 11  2  0  0  0  0 
 11 16  1  0  0  0  0 
 12 17  1  0  0  0  0 
 12 18  1  0  0  0  0 
 14 19  1  0  0  0  0 
M  END
> <Name>
DIELDRIN

> <Source>
DSSTox2DMolFile

> <Tox>
-5.230

> <CAS>
60-57-1

$$$$

  CDK

  4  3  0  0  0  0  0  0  0  0999 V2000
    1.3292   -1.1518    0.0000 C   0  0  0  0  0  0  0  0  0  0  0  0
    1.9950   -0.0000    0.0000 C   0  0  0  0  0  0  0  0  0  0  0  0
    1.9950   -2.3037    0.0000 O   0  0  0  0  0  0  0  0  0  0  0  0
    0.0000   -1.1518    0.0000 O   0  0  0  0  0  0  0  0  0  0  0  0
  1  2  1  0  0  0  0 
  1  3  2  0  0  0  0 
  1  4  1  0  0  0  0 
M  END
> <Name>
ACETIC ACID

> <Source>
DSSTox2DMolFile

> <Tox>
1.196

> <CAS>
64-19-7

$$$$

  CDK

  7  6  0  0  0  0  0  0  0  0999 V2000
    0.0000   -0.6638    0.0000 C   0  0  0  0  0  0  0  0  0  0  0  0
    1.1548   -0.0000    0.0000 C   0  0  0  0  0  0  0  0  0  0  0  0
    2.3027   -0.6638    0.0000 C   0  0  0  0  0  0  0  0  0  0  0  0
    3.4575   -0.0000    0.0000 C   0  0  0  0  0  0  0  0  0  0  0  0
    4.6122   -0.6638    0.0000 C   0  0  0  0  0  0  0  0  0  0  0  0
    5.7601   -0.0000    0.0000 C   0  0  0  0  0  0  0  0  0  0  0  0
    6.9149   -0.6638    0.0000 O   0  0  0  0  0  0  0  0  0  0  0  0
  1  2  1  0  0  0  0 
  2  3  1  0  0  0  0 
  3  4  1  0  0  0  0 
  4  5  1  0  0  0  0 
  5  6  1  0  0  0  0 
  6  7  2  0  0  0  0 
M  END
> <Name>
HEXANAL

> <Source>
DSSTox2DMolFile

> <Tox>
1.053

> <CAS>
66-25-1

$$$$

  CDK

  4  3  0  0  0  0  0  0  0  0999 V2000
    1.1518   -0.0000    0.0000 O   0  0  0  0  0  0  0  0  0  0  0  0
    1.1518   -1.3292    0.0000 C   0  0  0  0  0  0  0  0  0  0  0  0
    0.0000   -1.9950    0.0000 C   0  0  0  0  0  0  0  0  0  0  0  0
    2.3037   -1.9950    0.0000 C   0  0  0  0  0  0  0  0  0  0  0  0
  1  2  1  0  0  0  0 
  2  3  1  0  0  0  0 
  2  4  1  0  0  0  0 
M  END
> <Name>
ISOPROPANOL

> <Source>
DSSTox2DMolFile

> <Tox>
1.657

> <CAS>
67-63-0

$$$$

  CDK

  6  6  0  0  0  0  0  0  0  0999 V2000
    2.3036   -1.9950    0.0000 C   0  0  0  0  0  0  0  0  0  0  0  0
    1.1518   -2.6600    0.0000 C   0  0  0  0  0  0  0  0  0  0  0  0
    2.3036   -0.6650    0.0000 C   0  0  0  0  0  0  0  0  0  0  0  0
    0.0000   -1.9950    0.0000 C   0  0  0  0  0  0  0  0  0  0  0  0
    1.1518   -0.0000    0.0000 C   0  0  0  0  0  0  0  0  0  0  0  0
    0.0000   -0.6650    0.0000 C   0  0  0  0  0  0  0  0  0  0  0  0
  1  2  2  0  0  0  0 
  1  3  1  0  0  0  0 
  2  4  1  0  0  0  0 
  5  3  2  0  0  0  0 
  4  6  2  0  0  0  0 
  6  5  1  0  0  0  0 
M  END
> <Name>
BENZENE

> <Source>
DSSTox2DMolFile

> <Tox>
1.977

> <CAS>
71-43-2

$$$$

  CDK

 18 20  0  0  0  0  0  0  0  0999 V2000
    6.0466    1.7221    3.7820 O   0  0  0  0  0  0  0  0  0  0  0  0
    6.3245    0.5016    3.2382 C   0  0  0  0  0  0  0  0  0  0  0  0
    5.4084   -0.1833    2.4309 C   0  0  0  0  0  0  0  0  0  0  0  0
    7.5709   -0.0626    3.5116 C   0  0  0  0  0  0  0  0  0  0  0  0
    5.7441   -1.4308    1.9006 C   0  0  0  0  0  0  0  0  0  0  0  0
    4.0911    0.4217    2.1468 C   0  0  0  0  0  0  0  0  0  0  0  0
    8.4737    0.5908    4.2962 O   0  0  0  0  0  0  0  0  0  0  0  0
    7.9059   -1.3073    2.9823 C   0  0  0  0  0  0  0  0  0  0  0  0
    4.7867   -2.1648    1.0481 C   0  0  0  0  0  0  0  0  0  0  0  0
    6.9960   -1.9932    2.1774 C   0  0  0  0  0  0  0  0  0  0  0  0
    3.7716    1.5145    2.5978 O   0  0  0  0  0  0  0  0  0  0  0  0
    3.1338   -0.3123    1.2942 C   0  0  0  0  0  0  0  0  0  0  0  0
    5.0810   -3.2592    0.5835 O   0  0  0  0  0  0  0  0  0  0  0  0
    3.4694   -1.5599    0.7642 C   0  0  0  0  0  0  0  0  0  0  0  0
    1.8817    0.2499    1.0178 C   0  0  0  0  0  0  0  0  0  0  0  0
    2.5529   -2.2453   -0.0422 C   0  0  0  0  0  0  0  0  0  0  0  0
    0.9713   -0.4366    0.2139 C   0  0  0  0  0  0  0  0  0  0  0  0
    1.3062   -1.6816   -0.3150 C   0  0  0  0  0  0  0  0  0  0  0  0
  1  2  1  0  0  0  0 
  3  2  1  0  0  0  0 
  2  4  2  0  0  0  0 
  3  5  2  0  0  0  0 
  3  6  1  0  0  0  0 
  7  4  1  0  0  0  0 
  4  8  1  0  0  0  0 
  5  9  1  0  0  0  0 
  5 10  1  0  0  0  0 
 11  6  2  0  0  0  0 
 12  6  1  0  0  0  0 
 10  8  2  0  0  0  0 
 13  9  2  0  0  0  0 
 14  9  1  0  0  0  0 
 12 14  1  0  0  0  0 
 12 15  2  0  0  0  0 
 14 16  2  0  0  0  0 
 15 17  1  0  0  0  0 
 16 18  1  0  0  0  0 
 17 18  2  0  0  0  0 
M  END
> <Name>
ALIZARINE

> <Source>
Chemidplus3DMolFile

> <Tox>
-9.057

> <CAS>
72-48-0

$$$$

  CDK

  2  1  0  0  0  0  0  0  0  0999 V2000
    0.0000   -0.0000    0.0000 C   0  0  0  0  0  0  0  0  0  0  0  0
    1.3300   -0.0000    0.0000 C   0  0  0  0  0  0  0  0  0  0  0  0
  1  2  2  0  0  0  0 
M  END
> <Name>
ETHYLENE

> <Source>
DSSTox2DMolFile

> <Tox>
4.717

> <CAS>
74-85-1

$$$$

  CDK

  3  2  0  0  0  0  0  0  0  0999 V2000
    2.3030   -0.6656    0.0000 Br  0  0  0  0  0  0  0  0  0  0  0  0
    1.1515   -0.0000    0.0000 C   0  0  0  0  0  0  0  0  0  0  0  0
    0.0000   -0.6656    0.0000 Br  0  0  0  0  0  0  0  0  0  0  0  0
  1  2  1  0  0  0  0 
  2  3  1  0  0  0  0 
M  END
> <Name>
DIBROMOMETHANE

> <Source>
DSSTox2DMolFile

> <Tox>
1.647

> <CAS>
74-95-3

$$$$

  CDK

  3  2  0  0  0  0  0  0  0  0999 V2000
    2.3030   -0.6656    0.0000 C   0  0  0  0  0  0  0  0  0  0  0  0
    1.1515   -0.0000    0.0000 C   0  0  0  0  0  0  0  0  0  0  0  0
    0.0000   -0.6656    0.0000 Br  0  0  0  0  0  0  0  0  0  0  0  0
  1  2  1  0  0  0  0 
  2  3  1  0  0  0  0 
M  END
> <Name>
BROMOETHANE

> <Source>
DSSTox2DMolFile

> <Tox>
2.669

> <CAS>
74-96-4

$$$$

  CDK

  3  2  0  0  0  0  0  0  0  0999 V2000
    2.3030   -0.6656    0.0000 Cl  0  0  0  0  0  0  0  0  0  0  0  0
    1.1515   -0.0000    0.0000 C   0  0  0  0  0  0  0  0  0  0  0  0
    0.0000   -0.6656    0.0000 Br  0  0  0  0  0  0  0  0  0  0  0  0
  1  2  1  0  0  0  0 
  2  3  1  0  0  0  0 
M  END
> <Name>
CHLOROBROMOMETHANE

> <Source>
DSSTox2DMolFile

> <Tox>
2.155

> <CAS>
74-97-5

$$$$

  CDK

  3  2  0  0  0  0  0  0  0  0999 V2000
    2.3030   -0.6656    0.0000 C   0  0  0  0  0  0  0  0  0  0  0  0
    1.1515   -0.0000    0.0000 C   0  0  0  0  0  0  0  0  0  0  0  0
    0.0000   -0.6656    0.0000 Cl  0  0  0  0  0  0  0  0  0  0  0  0
  1  2  2  0  0  0  0 
  2  3  1  0  0  0  0 
M  END
> <Name>
VINYLCHLORIDE

> <Source>
DSSTox2DMolFile

> <Tox>
3.474

> <CAS>
75-01-4

$$$$

  CDK

  3  2  0  0  0  0  0  0  0  0999 V2000
    0.0000   -1.1533    0.0000 C   0  0  0  0  0  0  0  0  0  0  0  0
    0.6613   -0.0000    0.0000 C   0  0  0  0  0  0  0  0  0  0  0  0
    1.9919   -0.0000    0.0000 F   0  0  0  0  0  0  0  0  0  0  0  0
  1  2  2  0  0  0  0 
  2  3  1  0  0  0  0 
M  END
> <Name>
VINYLFLUORIDE

> <Source>
DSSTox2DMolFile

> <Tox>
4.297

> <CAS>
75-02-5

$$$$

  CDK

  3  2  0  0  0  0  0  0  0  0999 V2000
    2.3030   -0.6656    0.0000 N   0  0  0  0  0  0  0  0  0  0  0  0
    1.1515   -0.0000    0.0000 C   0  0  0  0  0  0  0  0  0  0  0  0
    0.0000   -0.6656    0.0000 C   0  0  0  0  0  0  0  0  0  0  0  0
  1  2  1  0  0  0  0 
  2  3  1  0  0  0  0 
M  END
> <Name>
ETHYLAMINE

> <Source>
DSSTox2DMolFile

> <Tox>
3.021

> <CAS>
75-04-7

$$$$

  CDK

  3  2  0  0  0  0  0  0  0  0999 V2000
    1.3203   -0.0000    0.0000 C   0  0  0  0  0  0  0  0  0  0  0  0
    0.0000   -0.0000    0.0000 F   0  0  0  0  0  0  0  0  0  0  0  0
    1.9884   -1.1612    0.0000 F   0  0  0  0  0  0  0  0  0  0  0  0
  1  2  1  0  0  0  0 
  1  3  1  0  0  0  0 
M  END
> <Name>
DIFLUOROMETHANE

> <Source>
DSSTox2DMolFile

> <Tox>
4.100

> <CAS>
75-10-5

$$$$

  CDK

  3  2  0  0  0  0  0  0  0  0999 V2000
    1.9884   -0.0000    0.0000 C   0  0  0  0  0  0  0  0  0  0  0  0
    0.6681   -0.0000    0.0000 S   0  0  0  0  0  0  0  0  0  0  0  0
    0.0000   -1.1612    0.0000 C   0  0  0  0  0  0  0  0  0  0  0  0
  1  2  1  0  0  0  0 
  3  2  1  0  0  0  0 
M  END
> <Name>
DIMETHYLSULFIDE

> <Source>
DSSTox2DMolFile

> <Tox>
2.701

> <CAS>
75-18-3

$$$$

  CDK

  3  3  0  0  0  0  0  0  0  0999 V2000
    0.0000   -1.1518    0.0000 C   0  0  0  0  0  0  0  0  0  0  0  0
    0.6650   -0.0000    0.0000 C   0  0  0  0  0  0  0  0  0  0  0  0
    1.3300   -1.1518    0.0000 O   0  0  0  0  0  0  0  0  0  0  0  0
  1  2  1  0  0  0  0 
  1  3  1  0  0  0  0 
  2  3  1  0  0  0  0 
M  END
> <Name>
ETHYLENE OXIDE

> <Source>
DSSTox2DMolFile

> <Tox>
3.117

> <CAS>
75-21-8

$$$$

  CDK

  4  3  0  0  0  0  0  0  0  0999 V2000
   -1.1566    1.2562    0.1348 C   0  0  0  0  0  0  0  0  0  0  0  0
   -0.5302    0.0000   -0.4182 C   0  0  0  0  0  0  0  0  0  0  0  0
   -1.1567   -1.2562    0.1348 C   0  0  0  0  0  0  0  0  0  0  0  0
    1.2051    0.0000    0.0462 Cl  0  0  0  0  0  0  0  0  0  0  0  0
  1  2  1  0  0  0  0 
  2  3  1  0  0  0  0 
  2  4  1  0  0  0  0 
M  END
> <Name>
2-CHLOROPROPANE

> <Source>
DougDB3DMolFile

> <Tox>
2.712

> <CAS>
75-29-6

$$$$

  CDK

  4  3  0  0  0  0  0  0  0  0999 V2000
    0.8456    0.9948    0.0000 C   0  0  0  0  0  0  0  0  0  0  0  0
    0.0000    1.4922    0.0000 C   0  0  0  0  0  0  0  0  0  0  0  0
    1.7409    1.4922    0.0000 C   0  0  0  0  0  0  0  0  0  0  0  0
    0.8456    0.0000    0.0000 I   0  0  0  0  0  0  0  0  0  0  0  0
  1  2  1  0  0  0  0 
  1  3  1  0  0  0  0 
  1  4  1  0  0  0  0 
M  END
> <Name>
2-IODOPROPANE

> <Source>
NIST2DMolFile

> <Tox>
1.634

> <CAS>
75-30-9

$$$$

  CDK

  4  3  0  0  0  0  0  0  0  0999 V2000
    1.3292   -1.1518    0.0000 C   0  0  0  0  0  0  0  0  0  0  0  0
    1.9950   -0.0000    0.0000 C   0  0  0  0  0  0  0  0  0  0  0  0
    1.9950   -2.3037    0.0000 C   0  0  0  0  0  0  0  0  0  0  0  0
    0.0000   -1.1518    0.0000 N   0  0  0  0  0  0  0  0  0  0  0  0
  1  2  1  0  0  0  0 
  1  3  1  0  0  0  0 
  1  4  1  0  0  0  0 
M  END
> <Name>
ISOPROPYLAMINE

> <Source>
DSSTox2DMolFile

> <Tox>
2.763

> <CAS>
75-31-0

$$$$

  CDK

  4  3  0  0  0  0  0  0  0  0999 V2000
    0.0000   -1.1591    0.0000 C   0  0  0  0  0  0  0  0  0  0  0  0
    1.3277   -1.1591    0.0000 C   0  0  0  0  0  0  0  0  0  0  0  0
    1.9903   -2.3090    0.0000 F   0  0  0  0  0  0  0  0  0  0  0  0
    1.9903   -0.0000    0.0000 F   0  0  0  0  0  0  0  0  0  0  0  0
  1  2  2  0  0  0  0 
  2  3  1  0  0  0  0 
  2  4  1  0  0  0  0 
M  END
> <Name>
1,1-DIFLUOROETHENE

> <Source>
DSSTox2DMolFile

> <Tox>
4.477

> <CAS>
75-38-7

$$$$

  CDK

  4  3  0  0  0  0  0  0  0  0999 V2000
    1.9950   -0.0000    0.0000 F   0  0  0  0  0  0  0  0  0  0  0  0
    1.3292   -1.1518    0.0000 C   0  0  0  0  0  0  0  0  0  0  0  0
    1.9950   -2.3037    0.0000 F   0  0  0  0  0  0  0  0  0  0  0  0
    0.0000   -1.1518    0.0000 Cl  0  0  0  0  0  0  0  0  0  0  0  0
  1  2  1  0  0  0  0 
  2  3  1  0  0  0  0 
  2  4  1  0  0  0  0 
M  END
> <Name>
CHLORODIFLUOROMETHANE

> <Source>
DSSTox2DMolFile

> <Tox>
3.860

> <CAS>
75-45-6

$$$$

  CDK

  5  4  0  0  0  0  0  0  0  0999 V2000
    2.0000    1.0000    0.0000 Br  0  0  0  0  0  0  0  0  0  0  0  0
    1.0000    1.0000    0.0000 C   0  0  0  0  0  0  0  0  0  0  0  0
    1.0000    2.0000    0.0000 Br  0  0  0  0  0  0  0  0  0  0  0  0
    1.0000    0.0000    0.0000 F   0  0  0  0  0  0  0  0  0  0  0  0
    0.0000    1.0000    0.0000 F   0  0  0  0  0  0  0  0  0  0  0  0
  1  2  1  0  0  0  0 
  2  3  1  0  0  0  0 
  2  4  1  0  0  0  0 
  2  5  1  0  0  0  0 
M  END
> <Name>
DIBROMODIFLUOROMETHANE

> <Source>
NIST2DMolFile

> <Tox>
2.914

> <CAS>
75-61-6

$$$$

  CDK

  5  4  0  0  0  0  0  0  0  0999 V2000
    1.3300   -1.3300    0.0000 C   0  0  0  0  0  0  0  0  0  0  0  0
    1.3300   -2.6600    0.0000 Cl  0  0  0  0  0  0  0  0  0  0  0  0
    2.6600   -1.3300    0.0000 Cl  0  0  0  0  0  0  0  0  0  0  0  0
    0.0000   -1.3300    0.0000 Cl  0  0  0  0  0  0  0  0  0  0  0  0
    1.3300   -0.0000    0.0000 Br  0  0  0  0  0  0  0  0  0  0  0  0
  1  2  1  0  0  0  0 
  1  3  1  0  0  0  0 
  1  4  1  0  0  0  0 
  1  5  1  0  0  0  0 
M  END
> <Name>
BROMOTRICHLOROMETHANE

> <Source>
DSSTox2DMolFile

> <Tox>
1.591

> <CAS>
75-62-7

$$$$

  CDK

  5  4  0  0  0  0  0  0  0  0999 V2000
    1.3300   -1.3300    0.0000 C   0  0  0  0  0  0  0  0  0  0  0  0
    1.3300   -2.6600    0.0000 C   0  0  0  0  0  0  0  0  0  0  0  0
    0.0000   -1.3300    0.0000 C   0  0  0  0  0  0  0  0  0  0  0  0
    1.3300   -0.0000    0.0000 C   0  0  0  0  0  0  0  0  0  0  0  0
    2.6600   -1.3300    0.0000 O   0  0  0  0  0  0  0  0  0  0  0  0
  1  2  1  0  0  0  0 
  1  3  1  0  0  0  0 
  1  4  1  0  0  0  0 
  1  5  1  0  0  0  0 
M  END
> <Name>
T-BUTANOL

> <Source>
DSSTox2DMolFile

> <Tox>
1.610

> <CAS>
75-65-0

$$$$

  CDK

  5  4  0  0  0  0  0  0  0  0999 V2000
    1.3300   -2.6600    0.0000 F   0  0  0  0  0  0  0  0  0  0  0  0
    1.3300   -1.3300    0.0000 C   0  0  0  0  0  0  0  0  0  0  0  0
    0.0000   -1.3300    0.0000 Cl  0  0  0  0  0  0  0  0  0  0  0  0
    1.3300   -0.0000    0.0000 Cl  0  0  0  0  0  0  0  0  0  0  0  0
    2.6600   -1.3300    0.0000 Cl  0  0  0  0  0  0  0  0  0  0  0  0
  1  2  1  0  0  0  0 
  2  3  1  0  0  0  0 
  2  4  1  0  0  0  0 
  2  5  1  0  0  0  0 
M  END
> <Name>
TRICHLOROFLUOROMETHANE

> <Source>
DSSTox2DMolFile

> <Tox>
2.905

> <CAS>
75-69-4

$$$$

  CDK

  5  4  0  0  0  0  0  0  0  0999 V2000
    1.3300   -2.6600    0.0000 F   0  0  0  0  0  0  0  0  0  0  0  0
    1.3300   -1.3300    0.0000 C   0  0  0  0  0  0  0  0  0  0  0  0
    0.0000   -1.3300    0.0000 F   0  0  0  0  0  0  0  0  0  0  0  0
    1.3300   -0.0000    0.0000 Cl  0  0  0  0  0  0  0  0  0  0  0  0
    2.6600   -1.3300    0.0000 Cl  0  0  0  0  0  0  0  0  0  0  0  0
  1  2  1  0  0  0  0 
  2  3  1  0  0  0  0 
  2  4  1  0  0  0  0 
  2  5  1  0  0  0  0 
M  END
> <Name>
DICHLORODIFLUOROMETHANE

> <Source>
DSSTox2DMolFile

> <Tox>
3.686

> <CAS>
75-71-8

$$$$

  CDK

  6  5  0  0  0  0  0  0  0  0999 V2000
    0.3634    0.2657    0.0074 C   0  0  0  0  0  0  0  0  0  0  0  0
   -0.5453   -0.2625   -1.0443 C   0  0  0  0  0  0  0  0  0  0  0  0
    0.6922    1.9500   -0.1072 Cl  0  0  0  0  0  0  0  0  0  0  0  0
   -0.1083   -0.2005    1.5893 Cl  0  0  0  0  0  0  0  0  0  0  0  0
    2.0876   -0.5488   -0.2408 Br  0  0  0  0  0  0  0  0  0  0  0  0
   -2.3082   -0.2158   -0.2195 Br  0  0  0  0  0  0  0  0  0  0  0  0
  1  2  1  0  0  0  0 
  1  3  1  0  0  0  0 
  1  4  1  0  0  0  0 
  1  5  1  0  0  0  0 
  2  6  1  0  0  0  0 
M  END
> <Name>
Ethane, 1,2-dibromo-1,1-dichloro-

> <Source>
DougDB3DMolFile

> <Tox>
-0.046

> <CAS>
75-81-0

$$$$

  CDK

  6  5  0  0  0  0  0  0  0  0999 V2000
    0.4637    1.3681   -0.6866 C   0  0  0  0  0  0  0  0  0  0  0  0
    0.4174   -0.0056   -0.0103 C   0  0  0  0  0  0  0  0  0  0  0  0
   -0.8709   -0.7592   -0.4181 C   0  0  0  0  0  0  0  0  0  0  0  0
    0.4543    0.2462    1.3901 O   0  0  0  0  0  0  0  0  0  0  0  0
    1.6405   -0.8367   -0.4249 C   0  0  0  0  0  0  0  0  0  0  0  0
   -2.1313   -0.0306   -0.0103 C   0  0  0  0  0  0  0  0  0  0  0  0
  1  2  1  0  0  0  0 
  2  3  1  0  0  0  0 
  2  4  1  0  0  0  0 
  2  5  1  0  0  0  0 
  3  6  1  0  0  0  0 
M  END
> <Name>
2-METHYL-2-BUTANOL

> <Source>
DougDB3DMolFile

> <Tox>
1.223

> <CAS>
75-85-4

$$$$

  CDK

  6  5  0  0  0  0  0  0  0  0999 V2000
    3.4542   -1.1537    0.0000 O   0  0  0  0  0  0  0  0  0  0  0  0
    2.3040   -0.4870    0.0000 C   0  0  0  0  0  0  0  0  0  0  0  0
    1.1503   -1.1537    0.0000 C   0  0  0  0  0  0  0  0  0  0  0  0
    1.8169   -2.3040    0.0000 Cl  0  0  0  0  0  0  0  0  0  0  0  0
    0.0000   -1.8169    0.0000 Cl  0  0  0  0  0  0  0  0  0  0  0  0
    0.4870   -0.0000    0.0000 Cl  0  0  0  0  0  0  0  0  0  0  0  0
  1  2  2  0  0  0  0 
  2  3  1  0  0  0  0 
  3  4  1  0  0  0  0 
  3  5  1  0  0  0  0 
  3  6  1  0  0  0  0 
M  END
> <Name>
TRICHLOROACETALDEHYDE

> <Source>
DSSTox2DMolFile

> <Tox>
1.699

> <CAS>
75-87-6

$$$$

  CDK

  7  6  0  0  0  0  0  0  0  0999 V2000
    0.0000   -1.9956    0.0000 C   0  0  0  0  0  0  0  0  0  0  0  0
    1.3304   -1.9956    0.0000 C   0  0  0  0  0  0  0  0  0  0  0  0
    2.6608   -1.9956    0.0000 Cl  0  0  0  0  0  0  0  0  0  0  0  0
    1.3304   -3.3260    0.0000 Cl  0  0  0  0  0  0  0  0  0  0  0  0
    1.3304   -0.6652    0.0000 C   0  0  0  0  0  0  0  0  0  0  0  0
    0.1796   -0.0000    0.0000 O   0  0  0  0  0  0  0  0  0  0  0  0
    2.4812   -0.0000    0.0000 O   0  0  0  0  0  0  0  0  0  0  0  0
  1  2  1  0  0  0  0 
  2  3  1  0  0  0  0 
  2  4  1  0  0  0  0 
  2  5  1  0  0  0  0 
  5  6  1  0  0  0  0 
  5  7  2  0  0  0  0 
M  END
> <Name>
DALAPON

> <Source>
DSSTox2DMolFile

> <Tox>
-0.821

> <CAS>
75-99-0

$$$$

  CDK

  7  6  0  0  0  0  0  0  0  0999 V2000
    1.1587   -2.0001    0.0000 C   0  0  0  0  0  0  0  0  0  0  0  0
    2.3036   -1.3380    0.0000 C   0  0  0  0  0  0  0  0  0  0  0  0
    1.8208   -3.1588    0.0000 Cl  0  0  0  0  0  0  0  0  0  0  0  0
    0.0000   -2.6760    0.0000 Cl  0  0  0  0  0  0  0  0  0  0  0  0
    0.5000   -0.8552    0.0000 Cl  0  0  0  0  0  0  0  0  0  0  0  0
    3.4485   -2.0001    0.0000 O   0  0  0  0  0  0  0  0  0  0  0  0
    2.3036   -0.0000    0.0000 Cl  0  0  0  0  0  0  0  0  0  0  0  0
  1  2  1  0  0  0  0 
  1  3  1  0  0  0  0 
  1  4  1  0  0  0  0 
  1  5  1  0  0  0  0 
  2  6  2  0  0  0  0 
  2  7  1  0  0  0  0 
M  END
> <Name>
TRICHLORACETYLCHLORIDE

> <Source>
DSSTox2DMolFile

> <Tox>
1.328

> <CAS>
76-02-8

$$$$

  CDK

 11 10  0  0  0  0  0  0  0  0999 V2000
    3.0882    0.9804    0.0000 C   0  0  0  0  0  0  0  0  0  0  0  0
    2.1078    0.9804    0.0000 C   0  0  0  0  0  0  0  0  0  0  0  0
    3.0882    0.0000    0.0000 F   0  0  0  0  0  0  0  0  0  0  0  0
    3.0882    1.9608    0.0000 F   0  0  0  0  0  0  0  0  0  0  0  0
    4.1176    0.9804    0.0000 F   0  0  0  0  0  0  0  0  0  0  0  0
    1.1275    0.9804    0.0000 C   0  0  0  0  0  0  0  0  0  0  0  0
    2.1078    0.0000    0.0000 F   0  0  0  0  0  0  0  0  0  0  0  0
    2.1078    1.9608    0.0000 F   0  0  0  0  0  0  0  0  0  0  0  0
    1.1275    1.9608    0.0000 F   0  0  0  0  0  0  0  0  0  0  0  0
    1.1275    0.0000    0.0000 F   0  0  0  0  0  0  0  0  0  0  0  0
    0.0000    0.9804    0.0000 F   0  0  0  0  0  0  0  0  0  0  0  0
  1  2  1  0  0  0  0 
  1  3  1  0  0  0  0 
  1  4  1  0  0  0  0 
  1  5  1  0  0  0  0 
  2  6  1  0  0  0  0 
  2  7  1  0  0  0  0 
  2  8  1  0  0  0  0 
  6  9  1  0  0  0  0 
  6 10  1  0  0  0  0 
  6 11  1  0  0  0  0 
M  END
> <Name>
OCTAFLUOROPROPANE

> <Source>
NIST2DMolFile

> <Tox>
3.822

> <CAS>
76-19-7

$$$$

  CDK

 11 11  0  0  0  0  0  0  0  0999 V2000
    3.4265   -0.1676    0.0000 Cl  0  0  0  0  0  0  0  0  0  0  0  0
    3.2868   -1.4898    0.0000 C   0  0  0  0  0  0  0  0  0  0  0  0
    3.4265   -2.8119    0.0000 C   0  0  0  0  0  0  0  0  0  0  0  0
    1.9879   -1.2151    0.0000 C   0  0  0  0  0  0  0  0  0  0  0  0
    4.6183   -1.4898    0.0000 Cl  0  0  0  0  0  0  0  0  0  0  0  0
    2.2114   -3.3566    0.0000 C   0  0  0  0  0  0  0  0  0  0  0  0
    4.5810   -3.4777    0.0000 Cl  0  0  0  0  0  0  0  0  0  0  0  0
    1.3222   -2.3650    0.0000 C   0  0  0  0  0  0  0  0  0  0  0  0
    1.4479   -0.0000    0.0000 Cl  0  0  0  0  0  0  0  0  0  0  0  0
    1.9367   -4.6555    0.0000 Cl  0  0  0  0  0  0  0  0  0  0  0  0
    0.0000   -2.5047    0.0000 Cl  0  0  0  0  0  0  0  0  0  0  0  0
  1  2  1  0  0  0  0 
  2  3  1  0  0  0  0 
  2  4  1  0  0  0  0 
  2  5  1  0  0  0  0 
  3  6  2  0  0  0  0 
  3  7  1  0  0  0  0 
  8  4  2  0  0  0  0 
  4  9  1  0  0  0  0 
  6  8  1  0  0  0  0 
  6 10  1  0  0  0  0 
  8 11  1  0  0  0  0 
M  END
> <Name>
HEXACHLOROCYCLOPENTADIENE

> <Source>
DSSTox2DMolFile

> <Tox>
-1.222

> <CAS>
77-47-4

$$$$

  CDK

  7  6  0  0  0  0  0  0  0  0999 V2000
    0.9516   -0.9516    0.0000 S   0  0  0  0  0  0  0  0  0  0  0  0
    0.0254   -0.0000    0.0000 O   0  0  0  0  0  0  0  0  0  0  0  0
    1.8905   -0.0000    0.0000 O   0  0  0  0  0  0  0  0  0  0  0  0
    1.8778   -1.8778    0.0000 O   0  0  0  0  0  0  0  0  0  0  0  0
    0.0000   -1.8778    0.0000 O   0  0  0  0  0  0  0  0  0  0  0  0
    3.1720   -1.5352    0.0000 C   0  0  0  0  0  0  0  0  0  0  0  0
    0.3426   -3.1720    0.0000 C   0  0  0  0  0  0  0  0  0  0  0  0
  1  2  2  0  0  0  0 
  1  3  2  0  0  0  0 
  1  4  1  0  0  0  0 
  1  5  1  0  0  0  0 
  4  6  1  0  0  0  0 
  5  7  1  0  0  0  0 
M  END
> <Name>
DIMETHYLSULFATE

> <Source>
DSSTox2DMolFile

> <Tox>
-0.169

> <CAS>
77-78-1

$$$$

  CDK

 19 18  0  0  0  0  0  0  0  0999 V2000
    2.9845    1.7199    0.0000 C   0  0  0  0  0  0  0  0  0  0  0  0
    3.9962    1.7199    0.0000 C   0  0  0  0  0  0  0  0  0  0  0  0
    2.4786    0.9105    0.0000 C   0  0  0  0  0  0  0  0  0  0  0  0
    4.9573    1.7199    0.0000 C   0  0  0  0  0  0  0  0  0  0  0  0
    3.9962    0.7588    0.0000 O   0  0  0  0  0  0  0  0  0  0  0  0
    3.9962    2.7316    0.0000 C   0  0  0  0  0  0  0  0  0  0  0  0
    1.4669    0.9105    0.0000 O   0  0  0  0  0  0  0  0  0  0  0  0
    3.0351    0.0506    0.0000 O   0  0  0  0  0  0  0  0  0  0  0  0
    5.4631    0.9105    0.0000 C   0  0  0  0  0  0  0  0  0  0  0  0
    3.0856    3.2374    0.0000 O   0  0  0  0  0  0  0  0  0  0  0  0
    4.8561    3.2880    0.0000 O   0  0  0  0  0  0  0  0  0  0  0  0
    1.0117    0.0000    0.0000 C   0  0  0  0  0  0  0  0  0  0  0  0
    4.9573    0.0506    0.0000 O   0  0  0  0  0  0  0  0  0  0  0  0
    6.4748    0.9105    0.0000 O   0  0  0  0  0  0  0  0  0  0  0  0
    5.7160    2.7821    0.0000 C   0  0  0  0  0  0  0  0  0  0  0  0
    0.0000    0.0000    0.0000 C   0  0  0  0  0  0  0  0  0  0  0  0
    6.9806    0.0506    0.0000 C   0  0  0  0  0  0  0  0  0  0  0  0
    6.5760    3.2880    0.0000 C   0  0  0  0  0  0  0  0  0  0  0  0
    7.9923    0.0506    0.0000 C   0  0  0  0  0  0  0  0  0  0  0  0
  1  2  1  0  0  0  0 
  1  3  1  0  0  0  0 
  2  4  1  0  0  0  0 
  2  5  1  0  0  0  0 
  2  6  1  0  0  0  0 
  3  7  1  0  0  0  0 
  3  8  2  0  0  0  0 
  4  9  1  0  0  0  0 
  6 10  2  0  0  0  0 
  6 11  1  0  0  0  0 
  7 12  1  0  0  0  0 
  9 13  2  0  0  0  0 
  9 14  1  0  0  0  0 
 11 15  1  0  0  0  0 
 12 16  1  0  0  0  0 
 14 17  1  0  0  0  0 
 15 18  1  0  0  0  0 
 17 19  1  0  0  0  0 
M  END
> <Name>
TRIETHYL CITRATE

> <Source>
NIST2DMolFile

> <Tox>
-3.163

> <CAS>
77-93-0

$$$$

  CDK

 26 28  0  0  0  0  0  0  0  0999 V2000
    4.6298   -1.9697    0.0000 P   0  0  0  0  0  0  0  0  0  0  0  0
    3.4700   -1.3254    0.0000 O   0  0  0  0  0  0  0  0  0  0  0  0
    3.9579   -3.1663    0.0000 O   0  0  0  0  0  0  0  0  0  0  0  0
    5.7711   -2.6693    0.0000 O   0  0  0  0  0  0  0  0  0  0  0  0
    5.2741   -0.8100    0.0000 O   0  0  0  0  0  0  0  0  0  0  0  0
    2.2735   -1.9697    0.0000 C   0  0  0  0  0  0  0  0  0  0  0  0
    4.6298   -4.2800    0.0000 C   0  0  0  0  0  0  0  0  0  0  0  0
    6.9032   -1.9697    0.0000 C   0  0  0  0  0  0  0  0  0  0  0  0
    1.1597   -1.3254    0.0000 C   0  0  0  0  0  0  0  0  0  0  0  0
    2.2735   -3.2951    0.0000 C   0  0  0  0  0  0  0  0  0  0  0  0
    3.9579   -5.4398    0.0000 C   0  0  0  0  0  0  0  0  0  0  0  0
    5.9460   -4.2800    0.0000 C   0  0  0  0  0  0  0  0  0  0  0  0
    8.0722   -2.6693    0.0000 C   0  0  0  0  0  0  0  0  0  0  0  0
    6.9032   -0.6535    0.0000 C   0  0  0  0  0  0  0  0  0  0  0  0
    0.0000   -1.9697    0.0000 C   0  0  0  0  0  0  0  0  0  0  0  0
    1.1597   -0.0000    0.0000 C   0  0  0  0  0  0  0  0  0  0  0  0
    1.1597   -3.9947    0.0000 C   0  0  0  0  0  0  0  0  0  0  0  0
    4.6298   -6.5995    0.0000 C   0  0  0  0  0  0  0  0  0  0  0  0
    2.6048   -5.4398    0.0000 C   0  0  0  0  0  0  0  0  0  0  0  0
    6.5995   -5.4398    0.0000 C   0  0  0  0  0  0  0  0  0  0  0  0
    9.2043   -1.9697    0.0000 C   0  0  0  0  0  0  0  0  0  0  0  0
    8.0722   -3.9947    0.0000 C   0  0  0  0  0  0  0  0  0  0  0  0
    8.0722   -0.0000    0.0000 C   0  0  0  0  0  0  0  0  0  0  0  0
    0.0000   -3.2951    0.0000 C   0  0  0  0  0  0  0  0  0  0  0  0
    5.9460   -6.5995    0.0000 C   0  0  0  0  0  0  0  0  0  0  0  0
    9.2043   -0.6535    0.0000 C   0  0  0  0  0  0  0  0  0  0  0  0
  1  2  1  0  0  0  0 
  1  3  1  0  0  0  0 
  1  4  1  0  0  0  0 
  1  5  2  0  0  0  0 
  2  6  1  0  0  0  0 
  3  7  1  0  0  0  0 
  4  8  1  0  0  0  0 
  6  9  2  0  0  0  0 
  6 10  1  0  0  0  0 
  7 11  2  0  0  0  0 
  7 12  1  0  0  0  0 
  8 13  2  0  0  0  0 
  8 14  1  0  0  0  0 
  9 15  1  0  0  0  0 
  9 16  1  0  0  0  0 
 10 17  2  0  0  0  0 
 11 18  1  0  0  0  0 
 11 19  1  0  0  0  0 
 12 20  2  0  0  0  0 
 13 21  1  0  0  0  0 
 13 22  1  0  0  0  0 
 14 23  2  0  0  0  0 
 15 24  2  0  0  0  0 
 17 24  1  0  0  0  0 
 18 25  2  0  0  0  0 
 20 25  1  0  0  0  0 
 21 26  2  0  0  0  0 
 23 26  1  0  0  0  0 
M  END
> <Name>
TRI-O-CRESYL PHOSPHATE

> <Source>
DSSTox2DMolFile

> <Tox>
-4.836

> <CAS>
78-30-8

$$$$

  CDK

 11 10  0  0  0  0  0  0  0  0999 V2000
    2.7907   -1.5055    0.0000 O   0  0  0  0  0  0  0  0  0  0  0  0
    3.4577   -2.6622    0.0000 P   0  0  0  0  0  0  0  0  0  0  0  0
    4.6083   -1.9951    0.0000 O   0  0  0  0  0  0  0  0  0  0  0  0
    4.1248   -3.8127    0.0000 O   0  0  0  0  0  0  0  0  0  0  0  0
    2.3072   -3.3231    0.0000 O   0  0  0  0  0  0  0  0  0  0  0  0
    4.6083   -0.6609    0.0000 C   0  0  0  0  0  0  0  0  0  0  0  0
    5.4528   -3.8127    0.0000 C   0  0  0  0  0  0  0  0  0  0  0  0
    1.1505   -2.6622    0.0000 C   0  0  0  0  0  0  0  0  0  0  0  0
    3.4577   -0.0000    0.0000 C   0  0  0  0  0  0  0  0  0  0  0  0
    6.1199   -2.6622    0.0000 C   0  0  0  0  0  0  0  0  0  0  0  0
    0.0000   -3.3231    0.0000 C   0  0  0  0  0  0  0  0  0  0  0  0
  1  2  2  0  0  0  0 
  2  3  1  0  0  0  0 
  2  4  1  0  0  0  0 
  2  5  1  0  0  0  0 
  3  6  1  0  0  0  0 
  4  7  1  0  0  0  0 
  5  8  1  0  0  0  0 
  6  9  1  0  0  0  0 
  7 10  1  0  0  0  0 
  8 11  1  0  0  0  0 
M  END
> <Name>
TRIETHYL PHOSPHATE

> <Source>
DSSTox2DMolFile

> <Tox>
-0.406

> <CAS>
78-40-0

$$$$

  CDK

 29 28  0  0  0  0  0  0  0  0999 V2000
    8.6397   -7.3094    0.0000 O   0  0  0  0  0  0  0  0  0  0  0  0
    7.3094   -7.3094    0.0000 P   0  0  0  0  0  0  0  0  0  0  0  0
    7.3094   -8.6397    0.0000 O   0  0  0  0  0  0  0  0  0  0  0  0
    7.3094   -5.9791    0.0000 O   0  0  0  0  0  0  0  0  0  0  0  0
    5.9791   -7.3094    0.0000 O   0  0  0  0  0  0  0  0  0  0  0  0
    8.4642   -9.2975    0.0000 C   0  0  0  0  0  0  0  0  0  0  0  0
    8.4642   -5.3212    0.0000 C   0  0  0  0  0  0  0  0  0  0  0  0
    5.3212   -8.4642    0.0000 C   0  0  0  0  0  0  0  0  0  0  0  0
    8.4642  -10.6278    0.0000 C   0  0  0  0  0  0  0  0  0  0  0  0
    8.4642   -3.9909    0.0000 C   0  0  0  0  0  0  0  0  0  0  0  0
    3.9909   -8.4642    0.0000 C   0  0  0  0  0  0  0  0  0  0  0  0
    9.6045  -11.3003    0.0000 C   0  0  0  0  0  0  0  0  0  0  0  0
    7.3094  -11.3003    0.0000 C   0  0  0  0  0  0  0  0  0  0  0  0
    7.3094   -3.3185    0.0000 C   0  0  0  0  0  0  0  0  0  0  0  0
    9.6045   -3.3185    0.0000 C   0  0  0  0  0  0  0  0  0  0  0  0
    3.3185   -9.6045    0.0000 C   0  0  0  0  0  0  0  0  0  0  0  0
    3.3185   -7.3094    0.0000 C   0  0  0  0  0  0  0  0  0  0  0  0
    9.6045  -12.6306    0.0000 C   0  0  0  0  0  0  0  0  0  0  0  0
    7.3094  -12.6306    0.0000 C   0  0  0  0  0  0  0  0  0  0  0  0
    7.3094   -1.9881    0.0000 C   0  0  0  0  0  0  0  0  0  0  0  0
    9.6045   -1.9881    0.0000 C   0  0  0  0  0  0  0  0  0  0  0  0
    1.9881   -9.6045    0.0000 C   0  0  0  0  0  0  0  0  0  0  0  0
    1.9881   -7.3094    0.0000 C   0  0  0  0  0  0  0  0  0  0  0  0
   10.7594  -13.2884    0.0000 C   0  0  0  0  0  0  0  0  0  0  0  0
    6.1545   -1.3303    0.0000 C   0  0  0  0  0  0  0  0  0  0  0  0
    1.3303  -10.7594    0.0000 C   0  0  0  0  0  0  0  0  0  0  0  0
   10.7594  -14.6187    0.0000 C   0  0  0  0  0  0  0  0  0  0  0  0
    6.1545   -0.0000    0.0000 C   0  0  0  0  0  0  0  0  0  0  0  0
    0.0000  -10.7594    0.0000 C   0  0  0  0  0  0  0  0  0  0  0  0
  1  2  2  0  0  0  0 
  2  3  1  0  0  0  0 
  2  4  1  0  0  0  0 
  2  5  1  0  0  0  0 
  3  6  1  0  0  0  0 
  4  7  1  0  0  0  0 
  5  8  1  0  0  0  0 
  6  9  1  0  0  0  0 
  7 10  1  0  0  0  0 
  8 11  1  0  0  0  0 
  9 12  1  0  0  0  0 
  9 13  1  0  0  0  0 
 10 14  1  0  0  0  0 
 10 15  1  0  0  0  0 
 11 16  1  0  0  0  0 
 11 17  1  0  0  0  0 
 12 18  1  0  0  0  0 
 13 19  1  0  0  0  0 
 14 20  1  0  0  0  0 
 15 21  1  0  0  0  0 
 16 22  1  0  0  0  0 
 17 23  1  0  0  0  0 
 18 24  1  0  0  0  0 
 20 25  1  0  0  0  0 
 22 26  1  0  0  0  0 
 24 27  1  0  0  0  0 
 25 28  1  0  0  0  0 
 26 29  1  0  0  0  0 
M  END
> <Name>
TRIS(2-ETHYLHEXYL) PHOSPHATE

> <Source>
DSSTox2DMolFile

> <Tox>
-7.084

> <CAS>
78-42-2

$$$$

  CDK

 17 16  0  0  0  0  0  0  0  0999 V2000
    3.4619   -4.6530    0.0000 P   0  0  0  0  0  0  0  0  0  0  0  0
    4.6065   -3.9923    0.0000 S   0  0  0  0  0  0  0  0  0  0  0  0
    2.3079   -5.3138    0.0000 S   0  0  0  0  0  0  0  0  0  0  0  0
    4.1226   -5.8163    0.0000 S   0  0  0  0  0  0  0  0  0  0  0  0
    2.7918   -3.5084    0.0000 O   0  0  0  0  0  0  0  0  0  0  0  0
    4.6065   -2.6615    0.0000 C   0  0  0  0  0  0  0  0  0  0  0  0
    2.3079   -6.6538    0.0000 C   0  0  0  0  0  0  0  0  0  0  0  0
    5.4348   -5.8163    0.0000 C   0  0  0  0  0  0  0  0  0  0  0  0
    5.7698   -2.0008    0.0000 C   0  0  0  0  0  0  0  0  0  0  0  0
    1.1446   -7.3146    0.0000 C   0  0  0  0  0  0  0  0  0  0  0  0
    6.1234   -6.9609    0.0000 C   0  0  0  0  0  0  0  0  0  0  0  0
    5.7698   -0.6607    0.0000 C   0  0  0  0  0  0  0  0  0  0  0  0
    1.1446   -8.6453    0.0000 C   0  0  0  0  0  0  0  0  0  0  0  0
    7.4449   -6.9609    0.0000 C   0  0  0  0  0  0  0  0  0  0  0  0
    6.9144   -0.0000    0.0000 C   0  0  0  0  0  0  0  0  0  0  0  0
    0.0000   -9.3061    0.0000 C   0  0  0  0  0  0  0  0  0  0  0  0
    8.1149   -8.1149    0.0000 C   0  0  0  0  0  0  0  0  0  0  0  0
  1  2  1  0  0  0  0 
  1  3  1  0  0  0  0 
  1  4  1  0  0  0  0 
  1  5  2  0  0  0  0 
  2  6  1  0  0  0  0 
  3  7  1  0  0  0  0 
  4  8  1  0  0  0  0 
  6  9  1  0  0  0  0 
  7 10  1  0  0  0  0 
  8 11  1  0  0  0  0 
  9 12  1  0  0  0  0 
 10 13  1  0  0  0  0 
 11 14  1  0  0  0  0 
 12 15  1  0  0  0  0 
 13 16  1  0  0  0  0 
 14 17  1  0  0  0  0 
M  END
> <Name>
TRIBUFOS

> <Source>
DSSTox2DMolFile

> <Tox>
-5.276

> <CAS>
78-48-8

$$$$

  CDK

 16 16  0  0  0  0  0  0  0  0999 V2000
    1.5036    1.5036    0.0000 P   0  0  0  0  0  0  0  0  0  0  0  0
    2.5059    1.5036    0.0000 S   0  0  0  0  0  0  0  0  0  0  0  0
    0.5012    1.5036    0.0000 O   0  0  0  0  0  0  0  0  0  0  0  0
    1.5036    0.5012    0.0000 O   0  0  0  0  0  0  0  0  0  0  0  0
    1.5036    2.5059    0.0000 S   0  0  0  0  0  0  0  0  0  0  0  0
    3.0071    2.3556    0.0000 C   0  0  0  0  0  0  0  0  0  0  0  0
    0.0000    2.3556    0.0000 C   0  0  0  0  0  0  0  0  0  0  0  0
    0.6515    0.0000    0.0000 C   0  0  0  0  0  0  0  0  0  0  0  0
    4.0095    2.3556    0.0000 C   0  0  0  0  0  0  0  0  0  0  0  0
    4.5107    3.2577    0.0000 N   0  0  0  0  0  0  0  0  0  0  0  0
    4.5107    1.5036    0.0000 N   0  0  0  0  0  0  0  0  0  0  0  0
    5.5130    3.2577    0.0000 C   0  0  0  0  0  0  0  0  0  0  0  0
    5.5130    1.5036    0.0000 C   0  0  0  0  0  0  0  0  0  0  0  0
    6.0142    4.1097    0.0000 N   0  0  0  0  0  0  0  0  0  0  0  0
    6.0142    2.3556    0.0000 N   0  0  0  0  0  0  0  0  0  0  0  0
    6.0142    0.6515    0.0000 N   0  0  0  0  0  0  0  0  0  0  0  0
  1  2  1  0  0  0  0 
  1  3  1  0  0  0  0 
  1  4  1  0  0  0  0 
  1  5  2  0  0  0  0 
  2  6  1  0  0  0  0 
  3  7  1  0  0  0  0 
  4  8  1  0  0  0  0 
  6  9  1  0  0  0  0 
 10  9  2  0  0  0  0 
  9 11  1  0  0  0  0 
 12 10  1  0  0  0  0 
 11 13  2  0  0  0  0 
 12 14  1  0  0  0  0 
 15 12  2  0  0  0  0 
 13 15  1  0  0  0  0 
 13 16  1  0  0  0  0 
M  END
> <Name>
MENAZON

> <Source>
NIST2DMolFile

> <Tox>
-6.011

> <CAS>
78-57-9

$$$$

  CDK

  5  4  0  0  0  0  0  0  0  0999 V2000
    3.4567   -1.9945    0.0000 C   0  0  0  0  0  0  0  0  0  0  0  0
    2.3056   -1.3308    0.0000 C   0  0  0  0  0  0  0  0  0  0  0  0
    2.3056   -0.0000    0.0000 C   0  0  0  0  0  0  0  0  0  0  0  0
    1.1511   -1.9945    0.0000 C   0  0  0  0  0  0  0  0  0  0  0  0
    0.0000   -1.3308    0.0000 C   0  0  0  0  0  0  0  0  0  0  0  0
  1  2  1  0  0  0  0 
  2  3  2  0  0  0  0 
  2  4  1  0  0  0  0 
  4  5  2  0  0  0  0 
M  END
> <Name>
2-METHYL-1,3-BUTADIENE

> <Source>
DSSTox2DMolFile

> <Tox>
2.740

> <CAS>
78-79-5

$$$$

  CDK

  5  4  0  0  0  0  0  0  0  0999 V2000
    1.1485   -1.9969    0.0000 Cl  0  0  0  0  0  0  0  0  0  0  0  0
    1.1485   -0.6725    0.0000 C   0  0  0  0  0  0  0  0  0  0  0  0
    0.0000   -0.0000    0.0000 C   0  0  0  0  0  0  0  0  0  0  0  0
    2.3004   -0.0000    0.0000 C   0  0  0  0  0  0  0  0  0  0  0  0
    3.4488   -0.6725    0.0000 C   0  0  0  0  0  0  0  0  0  0  0  0
  1  2  1  0  0  0  0 
  3  2  1  0  0  0  0 
  2  4  1  0  0  0  0 
  4  5  1  0  0  0  0 
M  END
> <Name>
2-CHLOROBUTANE

> <Source>
DSSTox2DMolFile

> <Tox>
2.196

> <CAS>
78-86-4

$$$$

  CDK

  5  4  0  0  0  0  0  0  0  0999 V2000
    3.4567   -1.9945    0.0000 C   0  0  0  0  0  0  0  0  0  0  0  0
    2.3056   -1.3308    0.0000 C   0  0  0  0  0  0  0  0  0  0  0  0
    1.1511   -1.9945    0.0000 C   0  0  0  0  0  0  0  0  0  0  0  0
    2.3056   -0.0000    0.0000 O   0  0  0  0  0  0  0  0  0  0  0  0
    0.0000   -1.3308    0.0000 C   0  0  0  0  0  0  0  0  0  0  0  0
  1  2  1  0  0  0  0 
  2  3  1  0  0  0  0 
  2  4  2  0  0  0  0 
  3  5  1  0  0  0  0 
M  END
> <Name>
2-BUTANONE

> <Source>
DSSTox2DMolFile

> <Tox>
1.957

> <CAS>
78-93-3

$$$$

  CDK

  5  4  0  0  0  0  0  0  0  0999 V2000
    3.4567   -1.9945    0.0000 C   0  0  0  0  0  0  0  0  0  0  0  0
    2.3056   -1.3308    0.0000 C   0  0  0  0  0  0  0  0  0  0  0  0
    1.1511   -1.9945    0.0000 C   0  0  0  0  0  0  0  0  0  0  0  0
    2.3056   -0.0000    0.0000 O   0  0  0  0  0  0  0  0  0  0  0  0
    0.0000   -1.3308    0.0000 Cl  0  0  0  0  0  0  0  0  0  0  0  0
  1  2  1  0  0  0  0 
  2  3  1  0  0  0  0 
  2  4  2  0  0  0  0 
  3  5  1  0  0  0  0 
M  END
> <Name>
CHLOROACETONE

> <Source>
DSSTox2DMolFile

> <Tox>
1.079

> <CAS>
78-95-5

$$$$

  CDK

  5  4  0  0  0  0  0  0  0  0999 V2000
    2.3056   -0.0000    0.0000 O   0  0  0  0  0  0  0  0  0  0  0  0
    2.3056   -1.3308    0.0000 C   0  0  0  0  0  0  0  0  0  0  0  0
    3.4567   -1.9945    0.0000 C   0  0  0  0  0  0  0  0  0  0  0  0
    1.1511   -1.9945    0.0000 C   0  0  0  0  0  0  0  0  0  0  0  0
    0.0000   -1.3308    0.0000 N   0  0  0  0  0  0  0  0  0  0  0  0
  1  2  1  0  0  0  0 
  2  3  1  0  0  0  0 
  2  4  1  0  0  0  0 
  4  5  1  0  0  0  0 
M  END
> <Name>
1-AMINO-2-PROPANOL

> <Source>
DSSTox2DMolFile

> <Tox>
-0.328

> <CAS>
78-96-6

$$$$

  CDK

  5  4  0  0  0  0  0  0  0  0999 V2000
    1.9939   -3.4556    0.0000 C   0  0  0  0  0  0  0  0  0  0  0  0
    1.3304   -2.3049    0.0000 C   0  0  0  0  0  0  0  0  0  0  0  0
    0.0000   -2.3049    0.0000 O   0  0  0  0  0  0  0  0  0  0  0  0
    1.9939   -1.1507    0.0000 C   0  0  0  0  0  0  0  0  0  0  0  0
    2.6608   -0.0000    0.0000 N   0  0  0  0  0  0  0  0  0  0  0  0
  1  2  1  0  0  0  0 
  2  3  1  0  0  0  0 
  2  4  1  0  0  0  0 
  4  5  3  0  0  0  0 
M  END
> <Name>
2-HYDROXYPROPANENITRILE

> <Source>
DSSTox2DMolFile

> <Tox>
-0.924

> <CAS>
78-97-7

$$$$

  CDK

  5  4  0  0  0  0  0  0  0  0999 V2000
    0.0037    0.1902   -0.4147 C   0  0  0  0  0  0  0  0  0  0  0  0
   -0.9292    1.1147    0.3334 C   0  0  0  0  0  0  0  0  0  0  0  0
    1.6791    0.5605    0.0177 Cl  0  0  0  0  0  0  0  0  0  0  0  0
   -0.2866   -1.4891    0.0628 Cl  0  0  0  0  0  0  0  0  0  0  0  0
   -2.3635    0.9306   -0.1070 C   0  0  0  0  0  0  0  0  0  0  0  0
  1  2  1  0  0  0  0 
  1  3  1  0  0  0  0 
  1  4  1  0  0  0  0 
  2  5  1  0  0  0  0 
M  END
> <Name>
1,1-Dichloropropane

> <Source>
DougDB3DMolFile

> <Tox>
1.834

> <CAS>
78-99-9

$$$$

  CDK

  5  4  0  0  0  0  0  0  0  0999 V2000
    2.3056   -1.3308    0.0000 C   0  0  0  0  0  0  0  0  0  0  0  0
    2.3056   -0.0000    0.0000 O   0  0  0  0  0  0  0  0  0  0  0  0
    3.4567   -1.9945    0.0000 O   0  0  0  0  0  0  0  0  0  0  0  0
    1.1511   -1.9945    0.0000 C   0  0  0  0  0  0  0  0  0  0  0  0
    0.0000   -1.3308    0.0000 O   0  0  0  0  0  0  0  0  0  0  0  0
  1  2  2  0  0  0  0 
  1  3  1  0  0  0  0 
  1  4  1  0  0  0  0 
  4  5  1  0  0  0  0 
M  END
> <Name>
HYDROXYACETIC ACID

> <Source>
DSSTox2DMolFile

> <Tox>
-1.699

> <CAS>
79-14-1

$$$$

  CDK

  6  5  0  0  0  0  0  0  0  0999 V2000
    3.3250   -1.1509    0.0000 N   0  0  0  0  0  0  0  0  0  0  0  0
    1.9943   -1.1509    0.0000 C   0  0  0  0  0  0  0  0  0  0  0  0
    1.3307   -0.0000    0.0000 S   0  0  0  0  0  0  0  0  0  0  0  0
    1.3307   -2.3053    0.0000 C   0  0  0  0  0  0  0  0  0  0  0  0
    1.9943   -3.4563    0.0000 S   0  0  0  0  0  0  0  0  0  0  0  0
    0.0000   -2.3053    0.0000 N   0  0  0  0  0  0  0  0  0  0  0  0
  1  2  1  0  0  0  0 
  2  3  2  0  0  0  0 
  2  4  1  0  0  0  0 
  4  5  2  0  0  0  0 
  4  6  1  0  0  0  0 
M  END
> <Name>
RUBEANIC ACID

> <Source>
DSSTox2DMolFile

> <Tox>
-5.785

> <CAS>
79-40-3

$$$$

  CDK

 10  9  0  0  0  0  0  0  0  0999 V2000
    1.7939    1.2814    0.0000 C   0  0  0  0  0  0  0  0  0  0  0  0
    1.7939    2.3577    0.0000 O   0  0  0  0  0  0  0  0  0  0  0  0
    2.6140    0.8201    0.0000 C   0  0  0  0  0  0  0  0  0  0  0  0
    0.9226    0.8201    0.0000 C   0  0  0  0  0  0  0  0  0  0  0  0
    3.1265    1.6914    0.0000 F   0  0  0  0  0  0  0  0  0  0  0  0
    3.4853    0.3075    0.0000 F   0  0  0  0  0  0  0  0  0  0  0  0
    2.1527    0.0000    0.0000 F   0  0  0  0  0  0  0  0  0  0  0  0
    1.3839    0.0000    0.0000 F   0  0  0  0  0  0  0  0  0  0  0  0
    0.0000    0.3075    0.0000 Cl  0  0  0  0  0  0  0  0  0  0  0  0
    0.3588    1.6914    0.0000 F   0  0  0  0  0  0  0  0  0  0  0  0
  1  2  2  0  0  0  0 
  1  3  1  0  0  0  0 
  1  4  1  0  0  0  0 
  3  5  1  0  0  0  0 
  3  6  1  0  0  0  0 
  3  7  1  0  0  0  0 
  4  8  1  0  0  0  0 
  4  9  1  0  0  0  0 
  4 10  1  0  0  0  0 
M  END
> <Name>
CHLOROPENTAFLUOROACETONE

> <Source>
NIST2DMolFile

> <Tox>
3.155

> <CAS>
79-53-8

$$$$

  CDK

  7  6  0  0  0  0  0  0  0  0999 V2000
    0.0000   -2.3052    0.0000 O   0  0  0  0  0  0  0  0  0  0  0  0
    1.3306   -2.3052    0.0000 C   0  0  0  0  0  0  0  0  0  0  0  0
    1.9941   -1.1508    0.0000 C   0  0  0  0  0  0  0  0  0  0  0  0
    1.9941   -3.4560    0.0000 O   0  0  0  0  0  0  0  0  0  0  0  0
    3.3247   -1.1508    0.0000 C   0  0  0  0  0  0  0  0  0  0  0  0
    1.3306   -0.0000    0.0000 C   0  0  0  0  0  0  0  0  0  0  0  0
    3.3247   -3.4560    0.0000 C   0  0  0  0  0  0  0  0  0  0  0  0
  1  2  2  0  0  0  0 
  2  3  1  0  0  0  0 
  2  4  1  0  0  0  0 
  3  5  2  0  0  0  0 
  3  6  1  0  0  0  0 
  4  7  1  0  0  0  0 
M  END
> <Name>
METHYL METHACRYLATE

> <Source>
DSSTox2DMolFile

> <Tox>
1.585

> <CAS>
80-62-6

$$$$

  CDK

 18 20  0  0  0  0  0  0  0  0999 V2000
    2.5990    0.9996    0.0000 C   0  0  0  0  0  0  0  0  0  0  0  0
    2.5990    0.0000    0.0000 O   0  0  0  0  0  0  0  0  0  0  0  0
    3.4487    1.4994    0.0000 C   0  0  0  0  0  0  0  0  0  0  0  0
    1.7493    1.4994    0.0000 C   0  0  0  0  0  0  0  0  0  0  0  0
    3.4487    2.4991    0.0000 C   0  0  0  0  0  0  0  0  0  0  0  0
    4.3484    0.9996    0.0000 C   0  0  0  0  0  0  0  0  0  0  0  0
    1.7493    2.4991    0.0000 C   0  0  0  0  0  0  0  0  0  0  0  0
    0.8497    0.9996    0.0000 C   0  0  0  0  0  0  0  0  0  0  0  0
    2.5990    2.9989    0.0000 C   0  0  0  0  0  0  0  0  0  0  0  0
    4.3484    2.9989    0.0000 C   0  0  0  0  0  0  0  0  0  0  0  0
    4.3484    0.0000    0.0000 O   0  0  0  0  0  0  0  0  0  0  0  0
    5.1981    1.4994    0.0000 C   0  0  0  0  0  0  0  0  0  0  0  0
    0.8497    2.9989    0.0000 C   0  0  0  0  0  0  0  0  0  0  0  0
    0.0000    1.4994    0.0000 C   0  0  0  0  0  0  0  0  0  0  0  0
    2.5990    3.9985    0.0000 O   0  0  0  0  0  0  0  0  0  0  0  0
    4.3484    3.9985    0.0000 O   0  0  0  0  0  0  0  0  0  0  0  0
    5.1981    2.4991    0.0000 C   0  0  0  0  0  0  0  0  0  0  0  0
    0.0000    2.4991    0.0000 C   0  0  0  0  0  0  0  0  0  0  0  0
  1  2  2  0  0  0  0 
  3  1  1  0  0  0  0 
  1  4  1  0  0  0  0 
  5  3  2  0  0  0  0 
  6  3  1  0  0  0  0 
  7  4  2  0  0  0  0 
  4  8  1  0  0  0  0 
  9  5  1  0  0  0  0 
  5 10  1  0  0  0  0 
  6 11  1  0  0  0  0 
 12  6  2  0  0  0  0 
  7  9  1  0  0  0  0 
 13  7  1  0  0  0  0 
  8 14  2  0  0  0  0 
  9 15  2  0  0  0  0 
 10 16  1  0  0  0  0 
 10 17  2  0  0  0  0 
 17 12  1  0  0  0  0 
 18 13  2  0  0  0  0 
 14 18  1  0  0  0  0 
M  END
> <Name>
1,4-DIHYDROXY-9,10-ANTHRACENEDIONE

> <Source>
NIST2DMolFile

> <Tox>
-7.614

> <CAS>
81-64-1

$$$$

  CDK

 26 29  0  0  0  0  0  0  0  0999 V2000
    4.3255   -2.3180    0.0000 C   0  0  0  0  0  0  0  0  0  0  0  0
    3.5701   -1.2211    0.0000 C   0  0  0  0  0  0  0  0  0  0  0  0
    3.5701   -3.3735    0.0000 C   0  0  0  0  0  0  0  0  0  0  0  0
    5.6708   -2.3180    0.0000 C   0  0  0  0  0  0  0  0  0  0  0  0
    2.3180   -1.6350    0.0000 C   0  0  0  0  0  0  0  0  0  0  0  0
    3.5701   -0.0000    0.0000 O   0  0  0  0  0  0  0  0  0  0  0  0
    2.3180   -2.9699    0.0000 C   0  0  0  0  0  0  0  0  0  0  0  0
    3.5701   -4.5946    0.0000 O   0  0  0  0  0  0  0  0  0  0  0  0
    6.3331   -3.4563    0.0000 C   0  0  0  0  0  0  0  0  0  0  0  0
    6.3331   -1.1383    0.0000 O   0  0  0  0  0  0  0  0  0  0  0  0
    1.1590   -0.9624    0.0000 C   0  0  0  0  0  0  0  0  0  0  0  0
    1.1590   -3.6633    0.0000 C   0  0  0  0  0  0  0  0  0  0  0  0
    7.6680   -3.4563    0.0000 C   0  0  0  0  0  0  0  0  0  0  0  0
    5.6915   -4.6153    0.0000 C   0  0  0  0  0  0  0  0  0  0  0  0
    0.0000   -1.6350    0.0000 C   0  0  0  0  0  0  0  0  0  0  0  0
    0.0000   -2.9699    0.0000 C   0  0  0  0  0  0  0  0  0  0  0  0
    8.3199   -4.6153    0.0000 C   0  0  0  0  0  0  0  0  0  0  0  0
    8.3199   -2.3180    0.0000 C   0  0  0  0  0  0  0  0  0  0  0  0
    6.3745   -5.7846    0.0000 C   0  0  0  0  0  0  0  0  0  0  0  0
    4.3359   -4.6153    0.0000 C   0  0  0  0  0  0  0  0  0  0  0  0
    9.6549   -4.6153    0.0000 C   0  0  0  0  0  0  0  0  0  0  0  0
    9.6859   -2.3180    0.0000 C   0  0  0  0  0  0  0  0  0  0  0  0
    5.7019   -6.9747    0.0000 C   0  0  0  0  0  0  0  0  0  0  0  0
    3.6840   -5.8053    0.0000 C   0  0  0  0  0  0  0  0  0  0  0  0
   10.3482   -3.4563    0.0000 C   0  0  0  0  0  0  0  0  0  0  0  0
    4.3566   -6.9747    0.0000 C   0  0  0  0  0  0  0  0  0  0  0  0
  1  2  1  0  0  0  0 
  1  3  1  0  0  0  0 
  1  4  1  0  0  0  0 
  2  5  1  0  0  0  0 
  2  6  2  0  0  0  0 
  3  7  1  0  0  0  0 
  3  8  2  0  0  0  0 
  4  9  1  0  0  0  0 
  4 10  2  0  0  0  0 
  7  5  2  0  0  0  0 
  5 11  1  0  0  0  0 
  7 12  1  0  0  0  0 
  9 13  1  0  0  0  0 
  9 14  1  0  0  0  0 
 11 15  2  0  0  0  0 
 12 16  2  0  0  0  0 
 13 17  1  0  0  0  0 
 13 18  2  0  0  0  0 
 14 19  2  0  0  0  0 
 14 20  1  0  0  0  0 
 16 15  1  0  0  0  0 
 17 21  2  0  0  0  0 
 18 22  1  0  0  0  0 
 19 23  1  0  0  0  0 
 20 24  2  0  0  0  0 
 21 25  1  0  0  0  0 
 22 25  2  0  0  0  0 
 23 26  2  0  0  0  0 
 24 26  1  0  0  0  0 
M  END
> <Name>
DIPHACINONE

> <Source>
DSSTox2DMolFile

> <Tox>
-9.987

> <CAS>
82-66-6

$$$$

  CDK

 18 20  0  0  0  0  0  0  0  0999 V2000
    1.4699   -0.2334    0.0676 C   0  0  0  0  0  0  0  0  0  0  0  0
    1.2207   -1.1165    1.1200 C   0  0  0  0  0  0  0  0  0  0  0  0
    2.3362   -0.6090   -0.9619 C   0  0  0  0  0  0  0  0  0  0  0  0
    0.8520    1.1021    0.0510 C   0  0  0  0  0  0  0  0  0  0  0  0
    1.8369   -2.3626    1.1418 C   0  0  0  0  0  0  0  0  0  0  0  0
    2.9439   -1.8589   -0.9372 C   0  0  0  0  0  0  0  0  0  0  0  0
   -0.5350    1.2904   -0.0028 C   0  0  0  0  0  0  0  0  0  0  0  0
    1.6942    2.2185    0.0934 C   0  0  0  0  0  0  0  0  0  0  0  0
    2.6973   -2.7352    0.1145 C   0  0  0  0  0  0  0  0  0  0  0  0
   -1.0573    2.5872   -0.0038 C   0  0  0  0  0  0  0  0  0  0  0  0
   -1.4818    0.1642   -0.0700 C   0  0  0  0  0  0  0  0  0  0  0  0
    1.1663    3.5026    0.0921 C   0  0  0  0  0  0  0  0  0  0  0  0
   -0.2118    3.6876    0.0448 C   0  0  0  0  0  0  0  0  0  0  0  0
   -2.1160   -0.2836    1.0905 C   0  0  0  0  0  0  0  0  0  0  0  0
   -1.7661   -0.4385   -1.2963 C   0  0  0  0  0  0  0  0  0  0  0  0
   -3.0302   -1.3288    1.0208 C   0  0  0  0  0  0  0  0  0  0  0  0
   -2.6818   -1.4833   -1.3580 C   0  0  0  0  0  0  0  0  0  0  0  0
   -3.3142   -1.9284   -0.2019 C   0  0  0  0  0  0  0  0  0  0  0  0
  1  2  1  0  0  0  0 
  1  3  2  0  0  0  0 
  1  4  1  0  0  0  0 
  2  5  2  0  0  0  0 
  6  3  1  0  0  0  0 
  4  7  1  0  0  0  0 
  4  8  2  0  0  0  0 
  5  9  1  0  0  0  0 
  9  6  2  0  0  0  0 
  7 10  2  0  0  0  0 
  7 11  1  0  0  0  0 
 12  8  1  0  0  0  0 
 10 13  1  0  0  0  0 
 11 14  1  0  0  0  0 
 11 15  2  0  0  0  0 
 13 12  2  0  0  0  0 
 14 16  2  0  0  0  0 
 17 15  1  0  0  0  0 
 16 18  1  0  0  0  0 
 18 17  2  0  0  0  0 
M  END
> <Name>
O-TERPHENYL

> <Source>
DougDB3DMolFile

> <Tox>
-3.602

> <CAS>
84-15-1

$$$$

  CDK

 14 16  0  0  0  0  0  0  0  0999 V2000
    2.3056   -2.6620    0.0000 C   0  0  0  0  0  0  0  0  0  0  0  0
    3.4440   -2.0008    0.0000 C   0  0  0  0  0  0  0  0  0  0  0  0
    2.3056   -3.9902    0.0000 C   0  0  0  0  0  0  0  0  0  0  0  0
    1.1499   -2.0008    0.0000 C   0  0  0  0  0  0  0  0  0  0  0  0
    4.5996   -2.6620    0.0000 C   0  0  0  0  0  0  0  0  0  0  0  0
    3.4440   -0.6727    0.0000 C   0  0  0  0  0  0  0  0  0  0  0  0
    3.4440   -4.6629    0.0000 C   0  0  0  0  0  0  0  0  0  0  0  0
    1.1499   -4.6629    0.0000 C   0  0  0  0  0  0  0  0  0  0  0  0
    0.0000   -2.6620    0.0000 C   0  0  0  0  0  0  0  0  0  0  0  0
    5.7495   -2.0181    0.0000 C   0  0  0  0  0  0  0  0  0  0  0  0
    4.5996   -3.9902    0.0000 C   0  0  0  0  0  0  0  0  0  0  0  0
    4.5996   -0.0000    0.0000 C   0  0  0  0  0  0  0  0  0  0  0  0
    0.0000   -3.9902    0.0000 C   0  0  0  0  0  0  0  0  0  0  0  0
    5.7495   -0.6727    0.0000 C   0  0  0  0  0  0  0  0  0  0  0  0
  1  2  1  0  0  0  0 
  1  3  2  0  0  0  0 
  1  4  1  0  0  0  0 
  2  5  2  0  0  0  0 
  2  6  1  0  0  0  0 
  3  7  1  0  0  0  0 
  3  8  1  0  0  0  0 
  4  9  2  0  0  0  0 
  5 10  1  0  0  0  0 
  5 11  1  0  0  0  0 
  6 12  2  0  0  0  0 
  7 11  2  0  0  0  0 
  8 13  2  0  0  0  0 
  9 13  1  0  0  0  0 
 10 14  2  0  0  0  0 
 12 14  1  0  0  0  0 
M  END
> <Name>
PHENANTHRENE

> <Source>
DSSTox2DMolFile

> <Tox>
-3.917

> <CAS>
85-01-8

$$$$

  CDK

 11 12  0  0  0  0  0  0  0  0999 V2000
    4.5940   -2.6089    0.0000 O   0  0  0  0  0  0  0  0  0  0  0  0
    3.2920   -2.8861    0.0000 C   0  0  0  0  0  0  0  0  0  0  0  0
    2.3020   -1.9950    0.0000 C   0  0  0  0  0  0  0  0  0  0  0  0
    2.7524   -4.0990    0.0000 O   0  0  0  0  0  0  0  0  0  0  0  0
    1.1535   -2.6584    0.0000 C   0  0  0  0  0  0  0  0  0  0  0  0
    2.3020   -0.6634    0.0000 C   0  0  0  0  0  0  0  0  0  0  0  0
    1.4307   -3.9603    0.0000 C   0  0  0  0  0  0  0  0  0  0  0  0
    0.0000   -1.9950    0.0000 C   0  0  0  0  0  0  0  0  0  0  0  0
    1.1535   -0.0000    0.0000 C   0  0  0  0  0  0  0  0  0  0  0  0
    0.5396   -4.9504    0.0000 O   0  0  0  0  0  0  0  0  0  0  0  0
    0.0000   -0.6634    0.0000 C   0  0  0  0  0  0  0  0  0  0  0  0
  1  2  2  0  0  0  0 
  2  3  1  0  0  0  0 
  2  4  1  0  0  0  0 
  3  5  2  0  0  0  0 
  3  6  1  0  0  0  0 
  7  4  1  0  0  0  0 
  5  8  1  0  0  0  0 
  5  7  1  0  0  0  0 
  9  6  2  0  0  0  0 
  7 10  2  0  0  0  0 
  8 11  2  0  0  0  0 
 11  9  1  0  0  0  0 
M  END
> <Name>
PHTHALIC ANHYDRIDE

> <Source>
DSSTox2DMolFile

> <Tox>
-3.287

> <CAS>
85-44-9

$$$$

  CDK

 15 17  0  0  0  0  0  0  0  0999 V2000
   -0.0001    1.1622    0.2524 N   0  0  0  0  0  0  0  0  0  0  0  0
   -1.1319    0.3886    0.1474 C   0  0  0  0  0  0  0  0  0  0  0  0
    1.1320    0.3889    0.1475 C   0  0  0  0  0  0  0  0  0  0  0  0
   -0.0010    2.5988    0.4465 C   0  0  0  0  0  0  0  0  0  0  0  0
   -0.7153   -0.9308   -0.0311 C   0  0  0  0  0  0  0  0  0  0  0  0
   -2.4814    0.7564    0.1969 C   0  0  0  0  0  0  0  0  0  0  0  0
    0.7158   -0.9306   -0.0310 C   0  0  0  0  0  0  0  0  0  0  0  0
    2.4814    0.7569    0.1970 C   0  0  0  0  0  0  0  0  0  0  0  0
   -0.0007    3.3568   -0.8700 C   0  0  0  0  0  0  0  0  0  0  0  0
   -1.6966   -1.9351   -0.1672 C   0  0  0  0  0  0  0  0  0  0  0  0
   -3.4346   -0.2564    0.0594 C   0  0  0  0  0  0  0  0  0  0  0  0
    1.6971   -1.9349   -0.1671 C   0  0  0  0  0  0  0  0  0  0  0  0
    3.4347   -0.2555    0.0592 C   0  0  0  0  0  0  0  0  0  0  0  0
   -3.0502   -1.5830   -0.1200 C   0  0  0  0  0  0  0  0  0  0  0  0
    3.0507   -1.5823   -0.1200 C   0  0  0  0  0  0  0  0  0  0  0  0
  1  2  1  0  0  0  0 
  1  3  1  0  0  0  0 
  1  4  1  0  0  0  0 
  2  5  1  0  0  0  0 
  2  6  2  0  0  0  0 
  3  7  1  0  0  0  0 
  3  8  2  0  0  0  0 
  4  9  1  0  0  0  0 
  5  7  1  0  0  0  0 
  5 10  2  0  0  0  0 
  6 11  1  0  0  0  0 
  7 12  2  0  0  0  0 
  8 13  1  0  0  0  0 
 10 14  1  0  0  0  0 
 11 14  2  0  0  0  0 
 12 15  1  0  0  0  0 
 13 15  2  0  0  0  0 
M  END
> <Name>
N-ETHYLCARBAZOL

> <Source>
Chemidplus3DMolFile

> <Tox>
-3.658

> <CAS>
86-28-2

$$$$

  CDK

 10  9  0  0  0  0  0  0  0  0999 V2000
    2.3047   -0.0000    0.0000 Cl  0  0  0  0  0  0  0  0  0  0  0  0
    2.3047   -1.3309    0.0000 C   0  0  0  0  0  0  0  0  0  0  0  0
    1.1523   -1.9935    0.0000 C   0  0  0  0  0  0  0  0  0  0  0  0
    3.4570   -1.9935    0.0000 C   0  0  0  0  0  0  0  0  0  0  0  0
    1.1523   -3.3245    0.0000 Cl  0  0  0  0  0  0  0  0  0  0  0  0
    0.0000   -1.3309    0.0000 Cl  0  0  0  0  0  0  0  0  0  0  0  0
    4.6093   -1.3309    0.0000 C   0  0  0  0  0  0  0  0  0  0  0  0
    3.4570   -3.3245    0.0000 Cl  0  0  0  0  0  0  0  0  0  0  0  0
    5.7617   -1.9935    0.0000 Cl  0  0  0  0  0  0  0  0  0  0  0  0
    4.6093   -0.0000    0.0000 Cl  0  0  0  0  0  0  0  0  0  0  0  0
  1  2  1  0  0  0  0 
  2  3  2  0  0  0  0 
  2  4  1  0  0  0  0 
  3  5  1  0  0  0  0 
  3  6  1  0  0  0  0 
  4  7  2  0  0  0  0 
  4  8  1  0  0  0  0 
  7  9  1  0  0  0  0 
  7 10  1  0  0  0  0 
M  END
> <Name>
HEXACHLOROBUTADIENE

> <Source>
DSSTox2DMolFile

> <Tox>
-0.658

> <CAS>
87-68-3

$$$$

  CDK

 10 10  0  0  0  0  0  0  0  0999 V2000
    0.0000    1.4291    0.0000 C   0  0  0  0  0  0  0  0  0  0  0  0
    0.9187    1.9395    0.0000 C   0  0  0  0  0  0  0  0  0  0  0  0
    0.9187    3.0113    0.0000 C   0  0  0  0  0  0  0  0  0  0  0  0
    1.7864    1.4291    0.0000 C   0  0  0  0  0  0  0  0  0  0  0  0
    2.6540    1.9395    0.0000 C   0  0  0  0  0  0  0  0  0  0  0  0
    1.7864    0.5104    0.0000 C   0  0  0  0  0  0  0  0  0  0  0  0
    3.5217    1.4291    0.0000 C   0  0  0  0  0  0  0  0  0  0  0  0
    2.6540    0.0000    0.0000 C   0  0  0  0  0  0  0  0  0  0  0  0
    0.9187    0.0000    0.0000 O   0  0  0  0  0  0  0  0  0  0  0  0
    3.5217    0.5104    0.0000 C   0  0  0  0  0  0  0  0  0  0  0  0
  1  2  1  0  0  0  0 
  2  3  1  0  0  0  0 
  2  4  1  0  0  0  0 
  4  5  2  0  0  0  0 
  6  4  1  0  0  0  0 
  5  7  1  0  0  0  0 
  8  6  2  0  0  0  0 
  6  9  1  0  0  0  0 
  7 10  2  0  0  0  0 
 10  8  1  0  0  0  0 
M  END
> <Name>
O-ISOPROPYLPHENOL

> <Source>
NIST2DMolFile

> <Tox>
-1.005

> <CAS>
88-69-7

$$$$

  CDK

 10 10  0  0  0  0  0  0  0  0999 V2000
    3.9896   -2.3044    0.0000 N   0  0  0  0  0  0  0  0  0  0  0  0
    4.6553   -3.4542    0.0000 O   0  0  0  0  0  0  0  0  0  0  0  0
    4.6553   -1.1499    0.0000 O   0  0  0  0  0  0  0  0  0  0  0  0
    2.6582   -2.3044    0.0000 C   0  0  0  0  0  0  0  0  0  0  0  0
    1.9971   -3.4542    0.0000 C   0  0  0  0  0  0  0  0  0  0  0  0
    1.9971   -1.1499    0.0000 C   0  0  0  0  0  0  0  0  0  0  0  0
    0.6657   -3.4542    0.0000 C   0  0  0  0  0  0  0  0  0  0  0  0
    0.6657   -1.1499    0.0000 C   0  0  0  0  0  0  0  0  0  0  0  0
    2.6582   -0.0000    0.0000 N   0  0  0  0  0  0  0  0  0  0  0  0
    0.0000   -2.3044    0.0000 C   0  0  0  0  0  0  0  0  0  0  0  0
  1  2  2  0  0  0  0 
  1  3  1  0  0  0  0 
  1  4  1  0  0  0  0 
  4  5  2  0  0  0  0 
  4  6  1  0  0  0  0 
  5  7  1  0  0  0  0 
  8  6  2  0  0  0  0 
  6  9  1  0  0  0  0 
  7 10  2  0  0  0  0 
 10  8  1  0  0  0  0 
M  CHG  1   1   1
M  CHG  1   3  -1
M  END
> <Name>
2-NITROANILINE

> <Source>
DSSTox2DMolFile

> <Tox>
-2.558

> <CAS>
88-74-4

$$$$

  CDK

 12 12  0  0  0  0  0  0  0  0999 V2000
    0.0496    1.7372    0.0000 Cl  0  0  0  0  0  0  0  0  0  0  0  0
    0.4963    0.8934    0.0000 C   0  0  0  0  0  0  0  0  0  0  0  0
    0.0000    0.0000    0.0000 O   0  0  0  0  0  0  0  0  0  0  0  0
    1.5387    0.8934    0.0000 C   0  0  0  0  0  0  0  0  0  0  0  0
    2.0350    1.7372    0.0000 C   0  0  0  0  0  0  0  0  0  0  0  0
    2.0350    0.0000    0.0000 C   0  0  0  0  0  0  0  0  0  0  0  0
    1.5387    2.5810    0.0000 C   0  0  0  0  0  0  0  0  0  0  0  0
    3.0277    1.7372    0.0000 C   0  0  0  0  0  0  0  0  0  0  0  0
    3.0277    0.0000    0.0000 C   0  0  0  0  0  0  0  0  0  0  0  0
    0.5460    2.5810    0.0000 Cl  0  0  0  0  0  0  0  0  0  0  0  0
    2.0350    3.4744    0.0000 O   0  0  0  0  0  0  0  0  0  0  0  0
    3.5240    0.8934    0.0000 C   0  0  0  0  0  0  0  0  0  0  0  0
  1  2  1  0  0  0  0 
  2  3  2  0  0  0  0 
  2  4  1  0  0  0  0 
  5  4  2  0  0  0  0 
  4  6  1  0  0  0  0 
  5  7  1  0  0  0  0 
  8  5  1  0  0  0  0 
  6  9  2  0  0  0  0 
  7 10  1  0  0  0  0 
  7 11  2  0  0  0  0 
 12  8  2  0  0  0  0 
  9 12  1  0  0  0  0 
M  END
> <Name>
PHTHALOYL CHLORIDE

> <Source>
NIST2DMolFile

> <Tox>
-1.790

> <CAS>
88-95-9

$$$$

  CDK

  9  9  0  0  0  0  0  0  0  0999 V2000
    4.6563   -3.4550    0.0000 O   0  0  0  0  0  0  0  0  0  0  0  0
    3.9905   -2.3049    0.0000 C   0  0  0  0  0  0  0  0  0  0  0  0
    2.6588   -2.3049    0.0000 C   0  0  0  0  0  0  0  0  0  0  0  0
    1.9976   -3.4550    0.0000 C   0  0  0  0  0  0  0  0  0  0  0  0
    1.9976   -1.1501    0.0000 C   0  0  0  0  0  0  0  0  0  0  0  0
    0.6659   -3.4550    0.0000 C   0  0  0  0  0  0  0  0  0  0  0  0
    0.6659   -1.1501    0.0000 C   0  0  0  0  0  0  0  0  0  0  0  0
    2.6588   -0.0000    0.0000 O   0  0  0  0  0  0  0  0  0  0  0  0
    0.0000   -2.3049    0.0000 C   0  0  0  0  0  0  0  0  0  0  0  0
  1  2  2  0  0  0  0 
  2  3  1  0  0  0  0 
  3  4  2  0  0  0  0 
  3  5  1  0  0  0  0 
  4  6  1  0  0  0  0 
  7  5  2  0  0  0  0 
  5  8  1  0  0  0  0 
  6  9  2  0  0  0  0 
  9  7  1  0  0  0  0 
M  END
> <Name>
O-HYDROXYBENZALDEHYDE

> <Source>
DSSTox2DMolFile

> <Tox>
-0.227

> <CAS>
90-02-8

$$$$

  CDK

 11 12  0  0  0  0  0  0  0  0999 V2000
    2.5864    1.9896    0.0000 C   0  0  0  0  0  0  0  0  0  0  0  0
    2.5864    2.9844    0.0000 Br  0  0  0  0  0  0  0  0  0  0  0  0
    1.7409    1.4922    0.0000 C   0  0  0  0  0  0  0  0  0  0  0  0
    3.4818    1.4922    0.0000 C   0  0  0  0  0  0  0  0  0  0  0  0
    1.7409    0.4974    0.0000 C   0  0  0  0  0  0  0  0  0  0  0  0
    0.8953    1.9896    0.0000 C   0  0  0  0  0  0  0  0  0  0  0  0
    3.4818    0.4974    0.0000 C   0  0  0  0  0  0  0  0  0  0  0  0
    2.5864    0.0000    0.0000 C   0  0  0  0  0  0  0  0  0  0  0  0
    0.8953    0.0000    0.0000 C   0  0  0  0  0  0  0  0  0  0  0  0
    0.0000    1.4922    0.0000 C   0  0  0  0  0  0  0  0  0  0  0  0
    0.0000    0.4974    0.0000 C   0  0  0  0  0  0  0  0  0  0  0  0
  1  2  1  0  0  0  0 
  3  1  2  0  0  0  0 
  1  4  1  0  0  0  0 
  3  5  1  0  0  0  0 
  6  3  1  0  0  0  0 
  4  7  2  0  0  0  0 
  8  5  2  0  0  0  0 
  5  9  1  0  0  0  0 
 10  6  2  0  0  0  0 
  7  8  1  0  0  0  0 
  9 11  2  0  0  0  0 
 11 10  1  0  0  0  0 
M  END
> <Name>
1-BROMONAPHTHALENE

> <Source>
NIST2DMolFile

> <Tox>
-2.012

> <CAS>
90-11-9

$$$$

  CDK

 13 14  0  0  0  0  0  0  0  0999 V2000
    0.0000   -1.1562    0.0000 Br  0  0  0  0  0  0  0  0  0  0  0  0
    1.3316   -1.1562    0.0000 C   0  0  0  0  0  0  0  0  0  0  0  0
    1.9935   -0.0000    0.0000 C   0  0  0  0  0  0  0  0  0  0  0  0
    1.9935   -2.3044    0.0000 C   0  0  0  0  0  0  0  0  0  0  0  0
    3.3251   -0.0000    0.0000 C   0  0  0  0  0  0  0  0  0  0  0  0
    3.3251   -2.3044    0.0000 C   0  0  0  0  0  0  0  0  0  0  0  0
    3.9869   -1.1562    0.0000 C   0  0  0  0  0  0  0  0  0  0  0  0
    5.3186   -1.1562    0.0000 C   0  0  0  0  0  0  0  0  0  0  0  0
    5.9804   -0.0000    0.0000 C   0  0  0  0  0  0  0  0  0  0  0  0
    5.9804   -2.3044    0.0000 C   0  0  0  0  0  0  0  0  0  0  0  0
    7.3120   -0.0000    0.0000 C   0  0  0  0  0  0  0  0  0  0  0  0
    7.3120   -2.3044    0.0000 C   0  0  0  0  0  0  0  0  0  0  0  0
    7.9739   -1.1562    0.0000 C   0  0  0  0  0  0  0  0  0  0  0  0
  1  2  1  0  0  0  0 
  2  3  2  0  0  0  0 
  2  4  1  0  0  0  0 
  3  5  1  0  0  0  0 
  6  4  2  0  0  0  0 
  5  7  2  0  0  0  0 
  7  6  1  0  0  0  0 
  7  8  1  0  0  0  0 
  8  9  2  0  0  0  0 
  8 10  1  0  0  0  0 
  9 11  1  0  0  0  0 
 12 10  2  0  0  0  0 
 11 13  2  0  0  0  0 
 13 12  1  0  0  0  0 
M  END
> <Name>
4-BROMOBIPHENYL

> <Source>
DSSTox2DMolFile

> <Tox>
-2.629

> <CAS>
92-66-0

$$$$

  CDK

 15 16  0  0  0  0  0  0  0  0999 V2000
    3.4635    1.4844    0.0000 O   0  0  0  0  0  0  0  0  0  0  0  0
    2.5729    1.9792    0.0000 C   0  0  0  0  0  0  0  0  0  0  0  0
    4.3047    1.9297    0.0000 C   0  0  0  0  0  0  0  0  0  0  0  0
    2.5729    2.9687    0.0000 O   0  0  0  0  0  0  0  0  0  0  0  0
    1.7318    1.5338    0.0000 C   0  0  0  0  0  0  0  0  0  0  0  0
    4.3047    2.9687    0.0000 C   0  0  0  0  0  0  0  0  0  0  0  0
    5.1458    1.4349    0.0000 C   0  0  0  0  0  0  0  0  0  0  0  0
    0.8906    2.0286    0.0000 C   0  0  0  0  0  0  0  0  0  0  0  0
    1.7318    0.4948    0.0000 C   0  0  0  0  0  0  0  0  0  0  0  0
    5.1953    3.4635    0.0000 C   0  0  0  0  0  0  0  0  0  0  0  0
    6.0364    1.9297    0.0000 C   0  0  0  0  0  0  0  0  0  0  0  0
    0.0000    1.5338    0.0000 C   0  0  0  0  0  0  0  0  0  0  0  0
    0.8411    0.0000    0.0000 C   0  0  0  0  0  0  0  0  0  0  0  0
    6.0364    2.9193    0.0000 C   0  0  0  0  0  0  0  0  0  0  0  0
    0.0000    0.5443    0.0000 C   0  0  0  0  0  0  0  0  0  0  0  0
  1  2  1  0  0  0  0 
  1  3  1  0  0  0  0 
  2  4  2  0  0  0  0 
  2  5  1  0  0  0  0 
  3  6  2  0  0  0  0 
  7  3  1  0  0  0  0 
  8  5  2  0  0  0  0 
  5  9  1  0  0  0  0 
  6 10  1  0  0  0  0 
 11  7  2  0  0  0  0 
 12  8  1  0  0  0  0 
  9 13  2  0  0  0  0 
 10 14  2  0  0  0  0 
 14 11  1  0  0  0  0 
 15 12  2  0  0  0  0 
 13 15  1  0  0  0  0 
M  END
> <Name>
PHENYL BENZOATE

> <Source>
NIST2DMolFile

> <Tox>
-2.770

> <CAS>
93-99-2

$$$$

  CDK

 16 16  0  0  0  0  0  0  0  0999 V2000
    2.3019   -3.9920    0.0000 Cl  0  0  0  0  0  0  0  0  0  0  0  0
    2.3019   -2.6648    0.0000 C   0  0  0  0  0  0  0  0  0  0  0  0
    1.1510   -2.0012    0.0000 C   0  0  0  0  0  0  0  0  0  0  0  0
    3.4529   -2.0012    0.0000 C   0  0  0  0  0  0  0  0  0  0  0  0
    1.1510   -0.6636    0.0000 C   0  0  0  0  0  0  0  0  0  0  0  0
    3.4529   -0.6636    0.0000 C   0  0  0  0  0  0  0  0  0  0  0  0
    4.6038   -2.6648    0.0000 O   0  0  0  0  0  0  0  0  0  0  0  0
    2.3019   -0.0000    0.0000 C   0  0  0  0  0  0  0  0  0  0  0  0
    0.0000   -0.0000    0.0000 Cl  0  0  0  0  0  0  0  0  0  0  0  0
    5.7651   -2.0012    0.0000 C   0  0  0  0  0  0  0  0  0  0  0  0
    6.9161   -2.6648    0.0000 C   0  0  0  0  0  0  0  0  0  0  0  0
    6.9161   -3.9920    0.0000 O   0  0  0  0  0  0  0  0  0  0  0  0
    8.0670   -2.0012    0.0000 O   0  0  0  0  0  0  0  0  0  0  0  0
    9.2180   -2.6648    0.0000 C   0  0  0  0  0  0  0  0  0  0  0  0
   10.3689   -2.0012    0.0000 C   0  0  0  0  0  0  0  0  0  0  0  0
    9.2180   -3.9920    0.0000 C   0  0  0  0  0  0  0  0  0  0  0  0
  1  2  1  0  0  0  0 
  2  3  2  0  0  0  0 
  2  4  1  0  0  0  0 
  3  5  1  0  0  0  0 
  6  4  2  0  0  0  0 
  4  7  1  0  0  0  0 
  5  8  2  0  0  0  0 
  5  9  1  0  0  0  0 
  8  6  1  0  0  0  0 
  7 10  1  0  0  0  0 
 10 11  1  0  0  0  0 
 11 12  2  0  0  0  0 
 11 13  1  0  0  0  0 
 13 14  1  0  0  0  0 
 14 15  1  0  0  0  0 
 14 16  1  0  0  0  0 
M  END
> <Name>
2,4-D, ISOPROPYL ESTER

> <Source>
DSSTox2DMolFile

> <Tox>
-3.635

> <CAS>
94-11-1

$$$$

  CDK

 10  9  0  0  0  0  0  0  0  0999 V2000
    0.0000   -1.9895    0.0000 O   0  0  0  0  0  0  0  0  0  0  0  0
    1.1536   -2.6595    0.0000 C   0  0  0  0  0  0  0  0  0  0  0  0
    2.3003   -1.9895    0.0000 C   0  0  0  0  0  0  0  0  0  0  0  0
    3.4540   -2.6595    0.0000 C   0  0  0  0  0  0  0  0  0  0  0  0
    2.3003   -0.6632    0.0000 C   0  0  0  0  0  0  0  0  0  0  0  0
    3.4540   -3.9859    0.0000 O   0  0  0  0  0  0  0  0  0  0  0  0
    4.6076   -1.9895    0.0000 C   0  0  0  0  0  0  0  0  0  0  0  0
    1.1536   -0.0000    0.0000 C   0  0  0  0  0  0  0  0  0  0  0  0
    5.7543   -2.6595    0.0000 C   0  0  0  0  0  0  0  0  0  0  0  0
    6.9079   -1.9895    0.0000 C   0  0  0  0  0  0  0  0  0  0  0  0
  1  2  1  0  0  0  0 
  2  3  1  0  0  0  0 
  3  4  1  0  0  0  0 
  3  5  1  0  0  0  0 
  4  6  1  0  0  0  0 
  4  7  1  0  0  0  0 
  5  8  1  0  0  0  0 
  7  9  1  0  0  0  0 
  9 10  1  0  0  0  0 
M  END
> <Name>
2-ETHYL-1,3-HEXANDIOL

> <Source>
DSSTox2DMolFile

> <Tox>
-2.523

> <CAS>
94-96-2

$$$$

  CDK

  8  8  0  0  0  0  0  0  0  0999 V2000
    0.0000   -2.3027    0.0000 C   0  0  0  0  0  0  0  0  0  0  0  0
    1.3289   -2.3027    0.0000 C   0  0  0  0  0  0  0  0  0  0  0  0
    1.9954   -1.1533    0.0000 C   0  0  0  0  0  0  0  0  0  0  0  0
    1.9954   -3.4560    0.0000 C   0  0  0  0  0  0  0  0  0  0  0  0
    1.3289   -0.0000    0.0000 C   0  0  0  0  0  0  0  0  0  0  0  0
    3.3243   -1.1533    0.0000 C   0  0  0  0  0  0  0  0  0  0  0  0
    3.3243   -3.4560    0.0000 C   0  0  0  0  0  0  0  0  0  0  0  0
    3.9907   -2.3027    0.0000 C   0  0  0  0  0  0  0  0  0  0  0  0
  1  2  1  0  0  0  0 
  2  3  2  0  0  0  0 
  2  4  1  0  0  0  0 
  3  5  1  0  0  0  0 
  3  6  1  0  0  0  0 
  7  4  2  0  0  0  0 
  6  8  2  0  0  0  0 
  8  7  1  0  0  0  0 
M  END
> <Name>
O-XYLENE

> <Source>
DSSTox2DMolFile

> <Tox>
0.820

> <CAS>
95-47-6

$$$$

  CDK

  8  8  0  0  0  0  0  0  0  0999 V2000
    0.0000   -2.3027    0.0000 Cl  0  0  0  0  0  0  0  0  0  0  0  0
    1.3289   -2.3027    0.0000 C   0  0  0  0  0  0  0  0  0  0  0  0
    1.9954   -1.1533    0.0000 C   0  0  0  0  0  0  0  0  0  0  0  0
    1.9954   -3.4560    0.0000 C   0  0  0  0  0  0  0  0  0  0  0  0
    3.3243   -1.1533    0.0000 C   0  0  0  0  0  0  0  0  0  0  0  0
    1.3289   -0.0000    0.0000 Cl  0  0  0  0  0  0  0  0  0  0  0  0
    3.3243   -3.4560    0.0000 C   0  0  0  0  0  0  0  0  0  0  0  0
    3.9907   -2.3027    0.0000 C   0  0  0  0  0  0  0  0  0  0  0  0
  1  2  1  0  0  0  0 
  2  3  2  0  0  0  0 
  2  4  1  0  0  0  0 
  3  5  1  0  0  0  0 
  3  6  1  0  0  0  0 
  7  4  2  0  0  0  0 
  5  8  2  0  0  0  0 
  8  7  1  0  0  0  0 
M  END
> <Name>
1,2-DICHLOROBENZENE

> <Source>
DSSTox2DMolFile

> <Tox>
0.134

> <CAS>
95-50-1

$$$$

  CDK

  8  8  0  0  0  0  0  0  0  0999 V2000
    0.0000   -2.3027    0.0000 N   0  0  0  0  0  0  0  0  0  0  0  0
    1.3289   -2.3027    0.0000 C   0  0  0  0  0  0  0  0  0  0  0  0
    1.9954   -1.1533    0.0000 C   0  0  0  0  0  0  0  0  0  0  0  0
    1.9954   -3.4560    0.0000 C   0  0  0  0  0  0  0  0  0  0  0  0
    1.3289   -0.0000    0.0000 Cl  0  0  0  0  0  0  0  0  0  0  0  0
    3.3243   -1.1533    0.0000 C   0  0  0  0  0  0  0  0  0  0  0  0
    3.3243   -3.4560    0.0000 C   0  0  0  0  0  0  0  0  0  0  0  0
    3.9907   -2.3027    0.0000 C   0  0  0  0  0  0  0  0  0  0  0  0
  1  2  1  0  0  0  0 
  2  3  2  0  0  0  0 
  2  4  1  0  0  0  0 
  3  5  1  0  0  0  0 
  3  6  1  0  0  0  0 
  7  4  2  0  0  0  0 
  6  8  2  0  0  0  0 
  8  7  1  0  0  0  0 
M  END
> <Name>
2-CHLOROANILINE

> <Source>
DSSTox2DMolFile

> <Tox>
-0.690

> <CAS>
95-51-2

$$$$

  CDK

  8  8  0  0  0  0  0  0  0  0999 V2000
    0.0000   -2.3027    0.0000 C   0  0  0  0  0  0  0  0  0  0  0  0
    1.3289   -2.3027    0.0000 C   0  0  0  0  0  0  0  0  0  0  0  0
    1.9954   -1.1533    0.0000 C   0  0  0  0  0  0  0  0  0  0  0  0
    1.9954   -3.4560    0.0000 C   0  0  0  0  0  0  0  0  0  0  0  0
    1.3289   -0.0000    0.0000 F   0  0  0  0  0  0  0  0  0  0  0  0
    3.3243   -1.1533    0.0000 C   0  0  0  0  0  0  0  0  0  0  0  0
    3.3243   -3.4560    0.0000 C   0  0  0  0  0  0  0  0  0  0  0  0
    3.9907   -2.3027    0.0000 C   0  0  0  0  0  0  0  0  0  0  0  0
  1  2  1  0  0  0  0 
  2  3  2  0  0  0  0 
  2  4  1  0  0  0  0 
  3  5  1  0  0  0  0 
  3  6  1  0  0  0  0 
  7  4  2  0  0  0  0 
  6  8  2  0  0  0  0 
  8  7  1  0  0  0  0 
M  END
> <Name>
O-FLUOROTOLUENE

> <Source>
DSSTox2DMolFile

> <Tox>
1.387

> <CAS>
95-52-3

$$$$

  CDK

  8  8  0  0  0  0  0  0  0  0999 V2000
    3.9907   -2.3027    0.0000 O   0  0  0  0  0  0  0  0  0  0  0  0
    2.6618   -2.3027    0.0000 C   0  0  0  0  0  0  0  0  0  0  0  0
    1.9954   -3.4560    0.0000 C   0  0  0  0  0  0  0  0  0  0  0  0
    1.9954   -1.1533    0.0000 C   0  0  0  0  0  0  0  0  0  0  0  0
    0.6665   -3.4560    0.0000 C   0  0  0  0  0  0  0  0  0  0  0  0
    0.6665   -1.1533    0.0000 C   0  0  0  0  0  0  0  0  0  0  0  0
    2.6618   -0.0000    0.0000 Cl  0  0  0  0  0  0  0  0  0  0  0  0
    0.0000   -2.3027    0.0000 C   0  0  0  0  0  0  0  0  0  0  0  0
  1  2  1  0  0  0  0 
  2  3  2  0  0  0  0 
  2  4  1  0  0  0  0 
  3  5  1  0  0  0  0 
  6  4  2  0  0  0  0 
  4  7  1  0  0  0  0 
  5  8  2  0  0  0  0 
  8  6  1  0  0  0  0 
M  END
> <Name>
2-CHLOROPHENOL

> <Source>
DSSTox2DMolFile

> <Tox>
0.403

> <CAS>
95-57-8

$$$$

  CDK

  9  9  0  0  0  0  0  0  0  0999 V2000
    0.0000   -2.6589    0.0000 C   0  0  0  0  0  0  0  0  0  0  0  0
    1.1520   -1.9953    0.0000 C   0  0  0  0  0  0  0  0  0  0  0  0
    1.1520   -0.6636    0.0000 C   0  0  0  0  0  0  0  0  0  0  0  0
    2.3041   -2.6589    0.0000 C   0  0  0  0  0  0  0  0  0  0  0  0
    2.3041   -0.0000    0.0000 C   0  0  0  0  0  0  0  0  0  0  0  0
    0.0000   -0.0000    0.0000 C   0  0  0  0  0  0  0  0  0  0  0  0
    3.4561   -1.9953    0.0000 C   0  0  0  0  0  0  0  0  0  0  0  0
    3.4561   -0.6636    0.0000 C   0  0  0  0  0  0  0  0  0  0  0  0
    4.6082   -2.6589    0.0000 C   0  0  0  0  0  0  0  0  0  0  0  0
  1  2  1  0  0  0  0 
  2  3  2  0  0  0  0 
  2  4  1  0  0  0  0 
  3  5  1  0  0  0  0 
  3  6  1  0  0  0  0 
  7  4  2  0  0  0  0 
  5  8  2  0  0  0  0 
  8  7  1  0  0  0  0 
  7  9  1  0  0  0  0 
M  END
> <Name>
1,2,4-TRIMETHYLBENZENE

> <Source>
DSSTox2DMolFile

> <Tox>
0.322

> <CAS>
95-63-6

$$$$

  CDK

  9  9  0  0  0  0  0  0  0  0999 V2000
    4.6082   -2.6589    0.0000 C   0  0  0  0  0  0  0  0  0  0  0  0
    3.4561   -1.9953    0.0000 C   0  0  0  0  0  0  0  0  0  0  0  0
    2.3041   -2.6589    0.0000 C   0  0  0  0  0  0  0  0  0  0  0  0
    3.4561   -0.6636    0.0000 C   0  0  0  0  0  0  0  0  0  0  0  0
    1.1520   -1.9953    0.0000 C   0  0  0  0  0  0  0  0  0  0  0  0
    2.3041   -0.0000    0.0000 C   0  0  0  0  0  0  0  0  0  0  0  0
    4.6082   -0.0000    0.0000 C   0  0  0  0  0  0  0  0  0  0  0  0
    0.0000   -2.6589    0.0000 N   0  0  0  0  0  0  0  0  0  0  0  0
    1.1520   -0.6636    0.0000 C   0  0  0  0  0  0  0  0  0  0  0  0
  1  2  1  0  0  0  0 
  2  3  2  0  0  0  0 
  2  4  1  0  0  0  0 
  3  5  1  0  0  0  0 
  6  4  2  0  0  0  0 
  4  7  1  0  0  0  0 
  5  8  1  0  0  0  0 
  5  9  2  0  0  0  0 
  9  6  1  0  0  0  0 
M  END
> <Name>
3,4-XYLIDINE

> <Source>
DSSTox2DMolFile

> <Tox>
-1.554

> <CAS>
95-64-7

$$$$

  CDK

 10 10  0  0  0  0  0  0  0  0999 V2000
    2.0018   -1.1623    0.0000 C   0  0  0  0  0  0  0  0  0  0  0  0
    2.7029   -2.3062    0.0000 C   0  0  0  0  0  0  0  0  0  0  0  0
    0.6826   -1.1623    0.0000 C   0  0  0  0  0  0  0  0  0  0  0  0
    2.6383   -0.0000    0.0000 C   0  0  0  0  0  0  0  0  0  0  0  0
    2.0018   -3.4501    0.0000 C   0  0  0  0  0  0  0  0  0  0  0  0
    0.0000   -2.3062    0.0000 C   0  0  0  0  0  0  0  0  0  0  0  0
    0.0323   -0.0000    0.0000 C   0  0  0  0  0  0  0  0  0  0  0  0
    0.6826   -3.4501    0.0000 C   0  0  0  0  0  0  0  0  0  0  0  0
    2.6383   -4.6124    0.0000 C   0  0  0  0  0  0  0  0  0  0  0  0
    0.0323   -4.6124    0.0000 C   0  0  0  0  0  0  0  0  0  0  0  0
  1  2  2  0  0  0  0 
  1  3  1  0  0  0  0 
  1  4  1  0  0  0  0 
  2  5  1  0  0  0  0 
  6  3  2  0  0  0  0 
  3  7  1  0  0  0  0 
  5  8  2  0  0  0  0 
  5  9  1  0  0  0  0 
  8  6  1  0  0  0  0 
  8 10  1  0  0  0  0 
M  END
> <Name>
1,2,4,5-TETRAMETHYLBENZENE

> <Source>
DSSTox2DMolFile

> <Tox>
-0.277

> <CAS>
95-93-2

$$$$

  CDK

  9  8  0  0  0  0  0  0  0  0999 V2000
    1.1530   -0.0000    0.0000 C   0  0  0  0  0  0  0  0  0  0  0  0
    1.1530   -1.3257    0.0000 C   0  0  0  0  0  0  0  0  0  0  0  0
    0.0000   -1.9954    0.0000 C   0  0  0  0  0  0  0  0  0  0  0  0
    2.2992   -1.9954    0.0000 C   0  0  0  0  0  0  0  0  0  0  0  0
    2.2992   -3.3210    0.0000 O   0  0  0  0  0  0  0  0  0  0  0  0
    3.4522   -1.3257    0.0000 O   0  0  0  0  0  0  0  0  0  0  0  0
    4.6053   -1.9954    0.0000 C   0  0  0  0  0  0  0  0  0  0  0  0
    5.7514   -1.3257    0.0000 C   0  0  0  0  0  0  0  0  0  0  0  0
    6.9045   -1.9954    0.0000 C   0  0  0  0  0  0  0  0  0  0  0  0
  1  2  2  0  0  0  0 
  2  3  1  0  0  0  0 
  2  4  1  0  0  0  0 
  4  5  2  0  0  0  0 
  4  6  1  0  0  0  0 
  6  7  1  0  0  0  0 
  7  8  1  0  0  0  0 
  8  9  2  0  0  0  0 
M  END
> <Name>
ALLYL METHACRYLATE

> <Source>
DSSTox2DMolFile

> <Tox>
0.761

> <CAS>
96-05-9

$$$$

  CDK

  6  5  0  0  0  0  0  0  0  0999 V2000
   -0.3761    0.8850   -0.0718 C   0  0  0  0  0  0  0  0  0  0  0  0
    0.0458   -0.3839   -0.0571 C   0  0  0  0  0  0  0  0  0  0  0  0
   -2.0058    1.2535    0.0087 Cl  0  0  0  0  0  0  0  0  0  0  0  0
    1.4598   -0.8195   -0.1342 C   0  0  0  0  0  0  0  0  0  0  0  0
   -1.0665   -1.6529    0.0419 Cl  0  0  0  0  0  0  0  0  0  0  0  0
    2.5858    0.5396    0.0552 Cl  0  0  0  0  0  0  0  0  0  0  0  0
  1  2  2  0  0  0  0 
  1  3  1  0  0  0  0 
  2  4  1  0  0  0  0 
  2  5  1  0  0  0  0 
  4  6  1  0  0  0  0 
M  END
> <Name>
1,2,3-TRICHLOROPROPENE

> <Source>
DougDB3DMolFile

> <Tox>
0.643

> <CAS>
96-19-5

$$$$

  CDK

  6  5  0  0  0  0  0  0  0  0999 V2000
    3.3247   -0.0000    0.0000 C   0  0  0  0  0  0  0  0  0  0  0  0
    1.9948   -0.0000    0.0000 C   0  0  0  0  0  0  0  0  0  0  0  0
    1.3299   -1.1537    0.0000 C   0  0  0  0  0  0  0  0  0  0  0  0
    0.0000   -1.1537    0.0000 O   0  0  0  0  0  0  0  0  0  0  0  0
    1.9948   -2.3040    0.0000 C   0  0  0  0  0  0  0  0  0  0  0  0
    3.3247   -2.3040    0.0000 C   0  0  0  0  0  0  0  0  0  0  0  0
  1  2  1  0  0  0  0 
  2  3  1  0  0  0  0 
  3  4  2  0  0  0  0 
  3  5  1  0  0  0  0 
  5  6  1  0  0  0  0 
M  END
> <Name>
3-PENTANONE

> <Source>
DSSTox2DMolFile

> <Tox>
1.576

> <CAS>
96-22-0

$$$$

  CDK

 15 15  0  0  0  0  0  0  0  0999 V2000
    1.3257   -1.3726    0.0000 C   0  0  0  0  0  0  0  0  0  0  0  0
    1.2923   -0.0000    0.0000 O   0  0  0  0  0  0  0  0  0  0  0  0
    2.4774   -2.0422    0.0000 C   0  0  0  0  0  0  0  0  0  0  0  0
    0.1741   -2.0422    0.0000 C   0  0  0  0  0  0  0  0  0  0  0  0
    2.4774   -3.3746    0.0000 C   0  0  0  0  0  0  0  0  0  0  0  0
    3.6089   -1.3726    0.0000 C   0  0  0  0  0  0  0  0  0  0  0  0
    0.1741   -3.3746    0.0000 C   0  0  0  0  0  0  0  0  0  0  0  0
    1.3257   -4.0241    0.0000 C   0  0  0  0  0  0  0  0  0  0  0  0
    2.9595   -0.2410    0.0000 C   0  0  0  0  0  0  0  0  0  0  0  0
    4.2852   -2.5242    0.0000 C   0  0  0  0  0  0  0  0  0  0  0  0
    4.7606   -0.7164    0.0000 C   0  0  0  0  0  0  0  0  0  0  0  0
    1.3257   -5.3699    0.0000 C   0  0  0  0  0  0  0  0  0  0  0  0
    2.6515   -5.3699    0.0000 C   0  0  0  0  0  0  0  0  0  0  0  0
    0.0000   -5.3565    0.0000 C   0  0  0  0  0  0  0  0  0  0  0  0
    1.3257   -6.6956    0.0000 C   0  0  0  0  0  0  0  0  0  0  0  0
  1  2  1  0  0  0  0 
  1  3  2  0  0  0  0 
  1  4  1  0  0  0  0 
  3  5  1  0  0  0  0 
  3  6  1  0  0  0  0 
  4  7  2  0  0  0  0 
  5  8  2  0  0  0  0 
  6  9  1  0  0  0  0 
  6 10  1  0  0  0  0 
  6 11  1  0  0  0  0 
  7  8  1  0  0  0  0 
  8 12  1  0  0  0  0 
 12 13  1  0  0  0  0 
 12 14  1  0  0  0  0 
 12 15  1  0  0  0  0 
M  END
> <Name>
2,4-DI-T-BUTYLPHENOL

> <Source>
DSSTox2DMolFile

> <Tox>
-2.321

> <CAS>
96-76-4

$$$$

  CDK

 13 13  0  0  0  0  0  0  0  0999 V2000
    5.7563   -0.0000    0.0000 Cl  0  0  0  0  0  0  0  0  0  0  0  0
    4.6092   -0.6634    0.0000 C   0  0  0  0  0  0  0  0  0  0  0  0
    4.6092   -1.9902    0.0000 C   0  0  0  0  0  0  0  0  0  0  0  0
    3.4552   -0.0000    0.0000 C   0  0  0  0  0  0  0  0  0  0  0  0
    3.4552   -2.6605    0.0000 C   0  0  0  0  0  0  0  0  0  0  0  0
    5.7563   -2.6605    0.0000 N   0  0  0  0  0  0  0  0  0  0  0  0
    2.3011   -0.6634    0.0000 C   0  0  0  0  0  0  0  0  0  0  0  0
    2.3011   -1.9902    0.0000 C   0  0  0  0  0  0  0  0  0  0  0  0
    5.7563   -3.9873    0.0000 O   0  0  0  0  0  0  0  0  0  0  0  0
    6.9103   -1.9902    0.0000 O   0  0  0  0  0  0  0  0  0  0  0  0
    1.1540   -2.6605    0.0000 N   0  0  0  0  0  0  0  0  0  0  0  0
    1.1540   -3.9873    0.0000 O   0  0  0  0  0  0  0  0  0  0  0  0
    0.0000   -1.9902    0.0000 O   0  0  0  0  0  0  0  0  0  0  0  0
  1  2  1  0  0  0  0 
  2  3  2  0  0  0  0 
  2  4  1  0  0  0  0 
  3  5  1  0  0  0  0 
  3  6  1  0  0  0  0 
  7  4  2  0  0  0  0 
  5  8  2  0  0  0  0 
  6  9  2  0  0  0  0 
  6 10  1  0  0  0  0 
  8  7  1  0  0  0  0 
  8 11  1  0  0  0  0 
 11 12  2  0  0  0  0 
 11 13  1  0  0  0  0 
M  CHG  1   6   1
M  CHG  1  10  -1
M  CHG  1  11   1
M  CHG  1  13  -1
M  END
> <Name>
2,4-DINITROCHLOROBENZENE

> <Source>
DSSTox2DMolFile

> <Tox>
-4.071

> <CAS>
97-00-7

$$$$

  CDK

  7  6  0  0  0  0  0  0  0  0999 V2000
    0.0646    1.0893    0.6522 C   0  0  0  0  0  0  0  0  0  0  0  0
    0.0046   -0.3936    0.2518 C   0  0  0  0  0  0  0  0  0  0  0  0
   -0.0627    1.9061   -0.4892 O   0  0  0  0  0  0  0  0  0  0  0  0
   -1.2601   -0.7517   -0.5286 C   0  0  0  0  0  0  0  0  0  0  0  0
    1.2533   -0.7922   -0.5395 C   0  0  0  0  0  0  0  0  0  0  0  0
   -2.5027   -0.7184    0.3335 C   0  0  0  0  0  0  0  0  0  0  0  0
    2.5046   -0.6817    0.3046 C   0  0  0  0  0  0  0  0  0  0  0  0
  1  2  1  0  0  0  0 
  1  3  1  0  0  0  0 
  2  4  1  0  0  0  0 
  2  5  1  0  0  0  0 
  4  6  1  0  0  0  0 
  5  7  1  0  0  0  0 
M  END
> <Name>
2-ETHYL-1-BUTANOL

> <Source>
DougDB3DMolFile

> <Tox>
0.185

> <CAS>
97-95-0

$$$$

  CDK

  7  7  0  0  0  0  0  0  0  0999 V2000
    3.5169   -2.1419    0.0000 C   0  0  0  0  0  0  0  0  0  0  0  0
    2.3050   -1.5998    0.0000 C   0  0  0  0  0  0  0  0  0  0  0  0
    4.4072   -1.1547    0.0000 C   0  0  0  0  0  0  0  0  0  0  0  0
    1.1503   -2.2653    0.0000 C   0  0  0  0  0  0  0  0  0  0  0  0
    2.4416   -0.2777    0.0000 O   0  0  0  0  0  0  0  0  0  0  0  0
    3.7417   -0.0000    0.0000 C   0  0  0  0  0  0  0  0  0  0  0  0
    0.0000   -1.5998    0.0000 O   0  0  0  0  0  0  0  0  0  0  0  0
  1  2  2  0  0  0  0 
  1  3  1  0  0  0  0 
  2  4  1  0  0  0  0 
  2  5  1  0  0  0  0 
  6  3  2  0  0  0  0 
  4  7  1  0  0  0  0 
  5  6  1  0  0  0  0 
M  END
> <Name>
2-HYDROXYMETHYLFURAN

> <Source>
DSSTox2DMolFile

> <Tox>
-0.215

> <CAS>
98-00-0

$$$$

  CDK

 10 10  0  0  0  0  0  0  0  0999 V2000
    3.9873   -0.0000    0.0000 F   0  0  0  0  0  0  0  0  0  0  0  0
    3.9873   -1.3291    0.0000 C   0  0  0  0  0  0  0  0  0  0  0  0
    5.3164   -1.3291    0.0000 F   0  0  0  0  0  0  0  0  0  0  0  0
    3.9873   -2.6582    0.0000 F   0  0  0  0  0  0  0  0  0  0  0  0
    2.6582   -1.3291    0.0000 C   0  0  0  0  0  0  0  0  0  0  0  0
    1.9936   -2.4827    0.0000 C   0  0  0  0  0  0  0  0  0  0  0  0
    1.9936   -0.1754    0.0000 C   0  0  0  0  0  0  0  0  0  0  0  0
    0.6645   -2.4827    0.0000 C   0  0  0  0  0  0  0  0  0  0  0  0
    0.6645   -0.1754    0.0000 C   0  0  0  0  0  0  0  0  0  0  0  0
    0.0000   -1.3291    0.0000 C   0  0  0  0  0  0  0  0  0  0  0  0
  1  2  1  0  0  0  0 
  2  3  1  0  0  0  0 
  2  4  1  0  0  0  0 
  2  5  1  0  0  0  0 
  5  6  2  0  0  0  0 
  5  7  1  0  0  0  0 
  6  8  1  0  0  0  0 
  9  7  2  0  0  0  0 
  8 10  2  0  0  0  0 
 10  9  1  0  0  0  0 
M  END
> <Name>
BENZOTRIFLUORIDE

> <Source>
DSSTox2DMolFile

> <Tox>
1.589

> <CAS>
98-08-8

$$$$

  CDK

 10 10  0  0  0  0  0  0  0  0999 V2000
    3.9872   -0.0000    0.0000 Cl  0  0  0  0  0  0  0  0  0  0  0  0
    3.9872   -1.3291    0.0000 S   0  0  0  0  0  0  0  0  0  0  0  0
    2.6582   -1.3291    0.0000 C   0  0  0  0  0  0  0  0  0  0  0  0
    3.9872   -2.6582    0.0000 O   0  0  0  0  0  0  0  0  0  0  0  0
    5.3163   -1.3291    0.0000 O   0  0  0  0  0  0  0  0  0  0  0  0
    2.0042   -2.4827    0.0000 C   0  0  0  0  0  0  0  0  0  0  0  0
    2.0042   -0.1754    0.0000 C   0  0  0  0  0  0  0  0  0  0  0  0
    0.6752   -2.4827    0.0000 C   0  0  0  0  0  0  0  0  0  0  0  0
    0.6752   -0.1754    0.0000 C   0  0  0  0  0  0  0  0  0  0  0  0
    0.0000   -1.3291    0.0000 C   0  0  0  0  0  0  0  0  0  0  0  0
  1  2  1  0  0  0  0 
  3  2  1  0  0  0  0 
  2  4  2  0  0  0  0 
  2  5  2  0  0  0  0 
  3  6  2  0  0  0  0 
  3  7  1  0  0  0  0 
  6  8  1  0  0  0  0 
  9  7  2  0  0  0  0 
  8 10  2  0  0  0  0 
 10  9  1  0  0  0  0 
M  END
> <Name>
BENZENESULFONYL CHLORIDE

> <Source>
DSSTox2DMolFile

> <Tox>
-1.237

> <CAS>
98-09-9

$$$$

  CDK

  9  9  0  0  0  0  0  0  0  0999 V2000
    2.6574   -0.0000    0.0000 C   0  0  0  0  0  0  0  0  0  0  0  0
    3.9884   -0.0000    0.0000 C   0  0  0  0  0  0  0  0  0  0  0  0
    1.9965   -1.1542    0.0000 C   0  0  0  0  0  0  0  0  0  0  0  0
    4.6539   -1.1542    0.0000 C   0  0  0  0  0  0  0  0  0  0  0  0
    2.6574   -2.3037    0.0000 C   0  0  0  0  0  0  0  0  0  0  0  0
    0.6655   -1.1542    0.0000 C   0  0  0  0  0  0  0  0  0  0  0  0
    3.9884   -2.3037    0.0000 C   0  0  0  0  0  0  0  0  0  0  0  0
    0.0000   -2.3037    0.0000 C   0  0  0  0  0  0  0  0  0  0  0  0
    0.0000   -0.0000    0.0000 C   0  0  0  0  0  0  0  0  0  0  0  0
  1  2  2  0  0  0  0 
  1  3  1  0  0  0  0 
  2  4  1  0  0  0  0 
  5  3  2  0  0  0  0 
  3  6  1  0  0  0  0 
  4  7  2  0  0  0  0 
  7  5  1  0  0  0  0 
  6  8  1  0  0  0  0 
  6  9  1  0  0  0  0 
M  END
> <Name>
CUMENE

> <Source>
DSSTox2DMolFile

> <Tox>
0.653

> <CAS>
98-82-8

$$$$

  CDK

  9  9  0  0  0  0  0  0  0  0999 V2000
    0.0000   -2.3037    0.0000 O   0  0  0  0  0  0  0  0  0  0  0  0
    0.6655   -1.1542    0.0000 N   0  0  0  0  0  0  0  0  0  0  0  0
    1.9965   -1.1542    0.0000 C   0  0  0  0  0  0  0  0  0  0  0  0
    0.0000   -0.0000    0.0000 O   0  0  0  0  0  0  0  0  0  0  0  0
    2.6574   -0.0000    0.0000 C   0  0  0  0  0  0  0  0  0  0  0  0
    2.6574   -2.3037    0.0000 C   0  0  0  0  0  0  0  0  0  0  0  0
    3.9884   -0.0000    0.0000 C   0  0  0  0  0  0  0  0  0  0  0  0
    3.9884   -2.3037    0.0000 C   0  0  0  0  0  0  0  0  0  0  0  0
    4.6539   -1.1542    0.0000 C   0  0  0  0  0  0  0  0  0  0  0  0
  1  2  2  0  0  0  0 
  2  3  1  0  0  0  0 
  2  4  1  0  0  0  0 
  3  5  2  0  0  0  0 
  3  6  1  0  0  0  0 
  5  7  1  0  0  0  0 
  8  6  2  0  0  0  0 
  7  9  2  0  0  0  0 
  9  8  1  0  0  0  0 
M  CHG  1   2   1
M  CHG  1   4  -1
M  END
> <Name>
NITROBENZENE

> <Source>
DSSTox2DMolFile

> <Tox>
-0.611

> <CAS>
98-95-3

$$$$

  CDK

 10 10  0  0  0  0  0  0  0  0999 V2000
   -2.1375   -0.1309    0.0216 C   0  0  0  0  0  0  0  0  0  0  0  0
   -1.3406   -1.1956    0.1674 C   0  0  0  0  0  0  0  0  0  0  0  0
   -1.5999    1.2605   -0.0210 C   0  0  0  0  0  0  0  0  0  0  0  0
   -3.6122   -0.2592   -0.1054 C   0  0  0  0  0  0  0  0  0  0  0  0
    0.1327   -1.0909    0.3092 C   0  0  0  0  0  0  0  0  0  0  0  0
   -0.1209    1.3305   -0.1353 C   0  0  0  0  0  0  0  0  0  0  0  0
    0.6771    0.2661    0.0080 C   0  0  0  0  0  0  0  0  0  0  0  0
    2.1704    0.3854   -0.1456 C   0  0  0  0  0  0  0  0  0  0  0  0
    2.6588   -0.5331   -1.2571 C   0  0  0  0  0  0  0  0  0  0  0  0
    2.8749    0.0727    1.1663 C   0  0  0  0  0  0  0  0  0  0  0  0
  1  2  2  0  0  0  0 
  1  3  1  0  0  0  0 
  1  4  1  0  0  0  0 
  2  5  1  0  0  0  0 
  6  3  1  0  0  0  0 
  5  7  1  0  0  0  0 
  7  6  2  0  0  0  0 
  7  8  1  0  0  0  0 
  8  9  1  0  0  0  0 
  8 10  1  0  0  0  0 
M  END
> <Name>
GAMMA-TERPINENE

> <Source>
DougDB3DMolFile

> <Tox>
0.037

> <CAS>
99-85-4

$$$$

  CDK

 10 10  0  0  0  0  0  0  0  0999 V2000
    4.4789    1.7418    0.0000 C   0  0  0  0  0  0  0  0  0  0  0  0
    3.9812    0.8460    0.0000 C   0  0  0  0  0  0  0  0  0  0  0  0
    4.4789    0.0000    0.0000 C   0  0  0  0  0  0  0  0  0  0  0  0
    2.9859    0.8460    0.0000 C   0  0  0  0  0  0  0  0  0  0  0  0
    2.4883    0.0000    0.0000 C   0  0  0  0  0  0  0  0  0  0  0  0
    2.4883    1.7418    0.0000 C   0  0  0  0  0  0  0  0  0  0  0  0
    1.4930    0.0000    0.0000 C   0  0  0  0  0  0  0  0  0  0  0  0
    1.4930    1.7418    0.0000 C   0  0  0  0  0  0  0  0  0  0  0  0
    0.9953    0.8460    0.0000 C   0  0  0  0  0  0  0  0  0  0  0  0
    0.0000    0.8460    0.0000 O   0  0  0  0  0  0  0  0  0  0  0  0
  1  2  1  0  0  0  0 
  2  3  1  0  0  0  0 
  2  4  1  0  0  0  0 
  5  4  2  0  0  0  0 
  4  6  1  0  0  0  0 
  7  5  1  0  0  0  0 
  6  8  2  0  0  0  0 
  9  7  2  0  0  0  0 
  8  9  1  0  0  0  0 
 10  9  1  0  0  0  0 
M  END
> <Name>
P-ISOPROPYLPHENOL

> <Source>
NIST2DMolFile

> <Tox>
-1.345

> <CAS>
99-89-8

$$$$

  CDK

 10 10  0  0  0  0  0  0  0  0999 V2000
    5.3365   -1.1393    0.0000 C   0  0  0  0  0  0  0  0  0  0  0  0
    5.9961   -0.0000    0.0000 O   0  0  0  0  0  0  0  0  0  0  0  0
    4.0054   -1.1393    0.0000 C   0  0  0  0  0  0  0  0  0  0  0  0
    5.9961   -2.2965    0.0000 O   0  0  0  0  0  0  0  0  0  0  0  0
    3.3278   -2.2965    0.0000 C   0  0  0  0  0  0  0  0  0  0  0  0
    3.3278   -0.0000    0.0000 C   0  0  0  0  0  0  0  0  0  0  0  0
    1.9907   -2.2965    0.0000 C   0  0  0  0  0  0  0  0  0  0  0  0
    1.9907   -0.0000    0.0000 C   0  0  0  0  0  0  0  0  0  0  0  0
    1.3371   -1.1393    0.0000 C   0  0  0  0  0  0  0  0  0  0  0  0
    0.0000   -1.1393    0.0000 O   0  0  0  0  0  0  0  0  0  0  0  0
  1  2  2  0  0  0  0 
  1  3  1  0  0  0  0 
  1  4  1  0  0  0  0 
  3  5  2  0  0  0  0 
  3  6  1  0  0  0  0 
  5  7  1  0  0  0  0 
  6  8  2  0  0  0  0 
  7  9  2  0  0  0  0 
  8  9  1  0  0  0  0 
  9 10  1  0  0  0  0 
M  END
> <Name>
P-HYDROXYBENZOIC ACID

> <Source>
DSSTox2DMolFile

> <Tox>
-6.717

> <CAS>
99-96-7

$$$$

  CDK

 12 12  0  0  0  0  0  0  0  0999 V2000
    4.6578   -1.1461    0.0000 C   0  0  0  0  0  0  0  0  0  0  0  0
    3.9981   -2.2989    0.0000 C   0  0  0  0  0  0  0  0  0  0  0  0
    3.9981   -0.0000    0.0000 C   0  0  0  0  0  0  0  0  0  0  0  0
    5.9905   -1.1461    0.0000 C   0  0  0  0  0  0  0  0  0  0  0  0
    2.6654   -2.2989    0.0000 C   0  0  0  0  0  0  0  0  0  0  0  0
    2.6654   -0.0000    0.0000 C   0  0  0  0  0  0  0  0  0  0  0  0
    6.6635   -0.0000    0.0000 C   0  0  0  0  0  0  0  0  0  0  0  0
    6.6635   -2.2989    0.0000 C   0  0  0  0  0  0  0  0  0  0  0  0
    1.9924   -1.1461    0.0000 C   0  0  0  0  0  0  0  0  0  0  0  0
    0.6597   -1.1461    0.0000 C   0  0  0  0  0  0  0  0  0  0  0  0
    0.0000   -2.2989    0.0000 C   0  0  0  0  0  0  0  0  0  0  0  0
    0.0000   -0.0000    0.0000 C   0  0  0  0  0  0  0  0  0  0  0  0
  1  2  2  0  0  0  0 
  1  3  1  0  0  0  0 
  1  4  1  0  0  0  0 
  2  5  1  0  0  0  0 
  6  3  2  0  0  0  0 
  4  7  1  0  0  0  0 
  4  8  1  0  0  0  0 
  5  9  2  0  0  0  0 
  9  6  1  0  0  0  0 
  9 10  1  0  0  0  0 
 10 11  1  0  0  0  0 
 10 12  1  0  0  0  0 
M  END
> <Name>
1,4-DIISOPROPYLBENZENE

> <Source>
DSSTox2DMolFile

> <Tox>
-0.609

> <CAS>
100-18-5

$$$$

  CDK

 12 12  0  0  0  0  0  0  0  0999 V2000
    0.6654   -1.1511    0.0000 C   0  0  0  0  0  0  0  0  0  0  0  0
    0.0000   -0.0000    0.0000 O   0  0  0  0  0  0  0  0  0  0  0  0
    0.0000   -2.3023    0.0000 O   0  0  0  0  0  0  0  0  0  0  0  0
    1.9962   -1.1511    0.0000 C   0  0  0  0  0  0  0  0  0  0  0  0
    2.6616   -0.0000    0.0000 C   0  0  0  0  0  0  0  0  0  0  0  0
    2.6616   -2.3023    0.0000 C   0  0  0  0  0  0  0  0  0  0  0  0
    3.9924   -0.0000    0.0000 C   0  0  0  0  0  0  0  0  0  0  0  0
    3.9924   -2.3023    0.0000 C   0  0  0  0  0  0  0  0  0  0  0  0
    4.6578   -1.1511    0.0000 C   0  0  0  0  0  0  0  0  0  0  0  0
    5.9885   -1.1511    0.0000 C   0  0  0  0  0  0  0  0  0  0  0  0
    6.6539   -0.0000    0.0000 O   0  0  0  0  0  0  0  0  0  0  0  0
    6.6539   -2.3023    0.0000 O   0  0  0  0  0  0  0  0  0  0  0  0
  1  2  2  0  0  0  0 
  1  3  1  0  0  0  0 
  1  4  1  0  0  0  0 
  4  5  2  0  0  0  0 
  4  6  1  0  0  0  0 
  5  7  1  0  0  0  0 
  8  6  2  0  0  0  0 
  7  9  2  0  0  0  0 
  9  8  1  0  0  0  0 
  9 10  1  0  0  0  0 
 10 11  2  0  0  0  0 
 10 12  1  0  0  0  0 
M  END
> <Name>
TEREPHTHALIC ACID

> <Source>
DSSTox2DMolFile

> <Tox>
-5.036

> <CAS>
100-21-0

$$$$

  CDK

  8  8  0  0  0  0  0  0  0  0999 V2000
    0.0000   -0.0000    0.0000 C   0  0  0  0  0  0  0  0  0  0  0  0
    0.6654   -1.1540    0.0000 C   0  0  0  0  0  0  0  0  0  0  0  0
    1.9962   -1.1540    0.0000 C   0  0  0  0  0  0  0  0  0  0  0  0
    2.6569   -0.0000    0.0000 C   0  0  0  0  0  0  0  0  0  0  0  0
    2.6569   -2.3033    0.0000 C   0  0  0  0  0  0  0  0  0  0  0  0
    3.9877   -0.0000    0.0000 C   0  0  0  0  0  0  0  0  0  0  0  0
    3.9877   -2.3033    0.0000 C   0  0  0  0  0  0  0  0  0  0  0  0
    4.6531   -1.1540    0.0000 C   0  0  0  0  0  0  0  0  0  0  0  0
  1  2  1  0  0  0  0 
  2  3  1  0  0  0  0 
  3  4  2  0  0  0  0 
  3  5  1  0  0  0  0 
  4  6  1  0  0  0  0 
  7  5  2  0  0  0  0 
  6  8  2  0  0  0  0 
  8  7  1  0  0  0  0 
M  END
> <Name>
ETHYLBENZENE

> <Source>
DSSTox2DMolFile

> <Tox>
0.982

> <CAS>
100-41-4

$$$$

  CDK

  8  8  0  0  0  0  0  0  0  0999 V2000
    0.0000   -0.0000    0.0000 N   0  0  0  0  0  0  0  0  0  0  0  0
    0.6654   -1.1540    0.0000 C   0  0  0  0  0  0  0  0  0  0  0  0
    1.9962   -1.1540    0.0000 C   0  0  0  0  0  0  0  0  0  0  0  0
    2.6569   -0.0000    0.0000 C   0  0  0  0  0  0  0  0  0  0  0  0
    2.6569   -2.3033    0.0000 C   0  0  0  0  0  0  0  0  0  0  0  0
    3.9877   -0.0000    0.0000 C   0  0  0  0  0  0  0  0  0  0  0  0
    3.9877   -2.3033    0.0000 C   0  0  0  0  0  0  0  0  0  0  0  0
    4.6531   -1.1540    0.0000 C   0  0  0  0  0  0  0  0  0  0  0  0
  1  2  1  0  0  0  0 
  2  3  1  0  0  0  0 
  3  4  2  0  0  0  0 
  3  5  1  0  0  0  0 
  4  6  1  0  0  0  0 
  7  5  2  0  0  0  0 
  6  8  2  0  0  0  0 
  8  7  1  0  0  0  0 
M  END
> <Name>
BENZYLAMINE

> <Source>
DSSTox2DMolFile

> <Tox>
-0.185

> <CAS>
100-46-9

$$$$

  CDK

  8  8  0  0  0  0  0  0  0  0999 V2000
    0.0000   -0.0000    0.0000 O   0  0  0  0  0  0  0  0  0  0  0  0
    0.6654   -1.1540    0.0000 C   0  0  0  0  0  0  0  0  0  0  0  0
    1.9962   -1.1540    0.0000 C   0  0  0  0  0  0  0  0  0  0  0  0
    2.6569   -0.0000    0.0000 C   0  0  0  0  0  0  0  0  0  0  0  0
    2.6569   -2.3033    0.0000 C   0  0  0  0  0  0  0  0  0  0  0  0
    3.9877   -0.0000    0.0000 C   0  0  0  0  0  0  0  0  0  0  0  0
    3.9877   -2.3033    0.0000 C   0  0  0  0  0  0  0  0  0  0  0  0
    4.6531   -1.1540    0.0000 C   0  0  0  0  0  0  0  0  0  0  0  0
  1  2  2  0  0  0  0 
  2  3  1  0  0  0  0 
  3  4  2  0  0  0  0 
  3  5  1  0  0  0  0 
  4  6  1  0  0  0  0 
  7  5  2  0  0  0  0 
  6  8  2  0  0  0  0 
  8  7  1  0  0  0  0 
M  END
> <Name>
BENZALDEHYDE

> <Source>
DSSTox2DMolFile

> <Tox>
0.104

> <CAS>
100-52-7

$$$$

  CDK

  8  8  0  0  0  0  0  0  0  0999 V2000
    2.6528   -1.1542    0.0000 C   0  0  0  0  0  0  0  0  0  0  0  0
    2.0013   -2.3038    0.0000 C   0  0  0  0  0  0  0  0  0  0  0  0
    2.0013   -0.0000    0.0000 C   0  0  0  0  0  0  0  0  0  0  0  0
    3.9839   -1.1542    0.0000 C   0  0  0  0  0  0  0  0  0  0  0  0
    0.6702   -2.3038    0.0000 C   0  0  0  0  0  0  0  0  0  0  0  0
    0.6702   -0.0000    0.0000 C   0  0  0  0  0  0  0  0  0  0  0  0
    4.6541   -0.0000    0.0000 S   0  0  0  0  0  0  0  0  0  0  0  0
    0.0000   -1.1542    0.0000 C   0  0  0  0  0  0  0  0  0  0  0  0
  1  2  2  0  0  0  0 
  1  3  1  0  0  0  0 
  1  4  1  0  0  0  0 
  2  5  1  0  0  0  0 
  6  3  2  0  0  0  0 
  4  7  1  0  0  0  0 
  5  8  2  0  0  0  0 
  8  6  1  0  0  0  0 
M  END
> <Name>
Benzenemethanethiol

> <Source>
DSSTox2DMolFile

> <Tox>
-0.384

> <CAS>
100-53-8

$$$$

  CDK

  8  8  0  0  0  0  0  0  0  0999 V2000
    0.6574   -2.3137    0.0000 N   0  0  0  0  0  0  0  0  0  0  0  0
    0.0000   -1.1569    0.0000 C   0  0  0  0  0  0  0  0  0  0  0  0
    1.9927   -2.3137    0.0000 C   0  0  0  0  0  0  0  0  0  0  0  0
    0.6574   -0.0000    0.0000 C   0  0  0  0  0  0  0  0  0  0  0  0
    2.6705   -1.1569    0.0000 C   0  0  0  0  0  0  0  0  0  0  0  0
    1.9927   -0.0000    0.0000 C   0  0  0  0  0  0  0  0  0  0  0  0
    4.0006   -1.1569    0.0000 C   0  0  0  0  0  0  0  0  0  0  0  0
    5.0963   -0.4638    0.0000 N   0  0  0  0  0  0  0  0  0  0  0  0
  1  2  2  0  0  0  0 
  1  3  1  0  0  0  0 
  2  4  1  0  0  0  0 
  3  5  2  0  0  0  0 
  4  6  2  0  0  0  0 
  5  6  1  0  0  0  0 
  5  7  1  0  0  0  0 
  7  8  3  0  0  0  0 
M  END
> <Name>
3-CYANOPYRIDINE

> <Source>
DSSTox2DMolFile

> <Tox>
-0.529

> <CAS>
100-54-9

$$$$

  CDK

  8  8  0  0  0  0  0  0  0  0999 V2000
    0.0000   -2.3042    0.0000 O   0  0  0  0  0  0  0  0  0  0  0  0
    0.6656   -1.1544    0.0000 N   0  0  0  0  0  0  0  0  0  0  0  0
    1.9969   -1.1544    0.0000 C   0  0  0  0  0  0  0  0  0  0  0  0
    2.6579   -0.0000    0.0000 C   0  0  0  0  0  0  0  0  0  0  0  0
    2.6579   -2.3042    0.0000 C   0  0  0  0  0  0  0  0  0  0  0  0
    3.9892   -0.0000    0.0000 C   0  0  0  0  0  0  0  0  0  0  0  0
    3.9892   -2.3042    0.0000 C   0  0  0  0  0  0  0  0  0  0  0  0
    4.6549   -1.1544    0.0000 C   0  0  0  0  0  0  0  0  0  0  0  0
  1  2  1  0  0  0  0 
  2  3  2  0  0  0  0 
  3  4  1  0  0  0  0 
  3  5  1  0  0  0  0 
  4  6  1  0  0  0  0 
  7  5  1  0  0  0  0 
  6  8  1  0  0  0  0 
  8  7  1  0  0  0  0 
M  END
> <Name>
CYCLOHEXANONE OXIME

> <Source>
DSSTox2DMolFile

> <Tox>
-1.553

> <CAS>
100-64-1

$$$$

  CDK

  8  8  0  0  0  0  0  0  0  0999 V2000
    0.0000    1.4432    0.0000 C   0  0  0  0  0  0  0  0  0  0  0  0
    0.9278    1.9587    0.0000 S   0  0  0  0  0  0  0  0  0  0  0  0
    1.8040    1.4432    0.0000 C   0  0  0  0  0  0  0  0  0  0  0  0
    2.6803    1.9587    0.0000 C   0  0  0  0  0  0  0  0  0  0  0  0
    1.8040    0.5154    0.0000 C   0  0  0  0  0  0  0  0  0  0  0  0
    3.5565    1.4432    0.0000 C   0  0  0  0  0  0  0  0  0  0  0  0
    2.6803    0.0000    0.0000 C   0  0  0  0  0  0  0  0  0  0  0  0
    3.5565    0.5154    0.0000 C   0  0  0  0  0  0  0  0  0  0  0  0
  1  2  1  0  0  0  0 
  2  3  1  0  0  0  0 
  3  4  2  0  0  0  0 
  5  3  1  0  0  0  0 
  4  6  1  0  0  0  0 
  7  5  2  0  0  0  0 
  6  8  2  0  0  0  0 
  8  7  1  0  0  0  0 
M  END
> <Name>
THIOANISOLE

> <Source>
NIST2DMolFile

> <Tox>
-0.314

> <CAS>
100-68-5

$$$$

  CDK

  8  8  0  0  0  0  0  0  0  0999 V2000
    2.0020   -2.3060    0.0000 N   0  0  0  0  0  0  0  0  0  0  0  0
    0.6923   -2.3060    0.0000 C   0  0  0  0  0  0  0  0  0  0  0  0
    2.6942   -1.1600    0.0000 C   0  0  0  0  0  0  0  0  0  0  0  0
    0.0000   -1.1600    0.0000 C   0  0  0  0  0  0  0  0  0  0  0  0
    2.0020   -0.0140    0.0000 C   0  0  0  0  0  0  0  0  0  0  0  0
    4.0320   -1.1600    0.0000 C   0  0  0  0  0  0  0  0  0  0  0  0
    0.6923   -0.0140    0.0000 C   0  0  0  0  0  0  0  0  0  0  0  0
    4.6775   -0.0000    0.0000 C   0  0  0  0  0  0  0  0  0  0  0  0
  1  2  2  0  0  0  0 
  1  3  1  0  0  0  0 
  2  4  1  0  0  0  0 
  3  5  2  0  0  0  0 
  3  6  1  0  0  0  0 
  4  7  2  0  0  0  0 
  5  7  1  0  0  0  0 
  6  8  2  0  0  0  0 
M  END
> <Name>
2-VINYLPYRIDINE

> <Source>
DSSTox2DMolFile

> <Tox>
0.444

> <CAS>
100-69-6

$$$$

  CDK

  8  8  0  0  0  0  0  0  0  0999 V2000
    1.9969   -0.0000    0.0000 N   0  0  0  0  0  0  0  0  0  0  0  0
    2.6579   -1.1544    0.0000 C   0  0  0  0  0  0  0  0  0  0  0  0
    0.6656   -0.0000    0.0000 C   0  0  0  0  0  0  0  0  0  0  0  0
    3.9892   -1.1544    0.0000 C   0  0  0  0  0  0  0  0  0  0  0  0
    1.9969   -2.3042    0.0000 C   0  0  0  0  0  0  0  0  0  0  0  0
    0.0000   -1.1544    0.0000 C   0  0  0  0  0  0  0  0  0  0  0  0
    4.6549   -2.3042    0.0000 C   0  0  0  0  0  0  0  0  0  0  0  0
    0.6656   -2.3042    0.0000 C   0  0  0  0  0  0  0  0  0  0  0  0
  1  2  2  0  0  0  0 
  1  3  1  0  0  0  0 
  2  4  1  0  0  0  0 
  2  5  1  0  0  0  0 
  6  3  2  0  0  0  0 
  4  7  1  0  0  0  0 
  5  8  2  0  0  0  0 
  8  6  1  0  0  0  0 
M  END
> <Name>
2-ETHYLPYRIDINE

> <Source>
DSSTox2DMolFile

> <Tox>
0.689

> <CAS>
100-71-0

$$$$

  CDK

 13 14  0  0  0  0  0  0  0  0999 V2000
    2.7015    2.6769    1.0217 C   0  0  0  0  0  0  0  0  0  0  0  0
    4.0672    2.3149    1.5172 C   0  0  0  0  0  0  0  0  0  0  0  0
    2.0372    3.6563    1.9386 C   0  0  0  0  0  0  0  0  0  0  0  0
    4.2431    1.2076    2.3481 C   0  0  0  0  0  0  0  0  0  0  0  0
    5.1734    3.0813    1.1477 C   0  0  0  0  0  0  0  0  0  0  0  0
    1.2436    3.2042    2.9939 C   0  0  0  0  0  0  0  0  0  0  0  0
    2.2054    5.0277    1.7422 C   0  0  0  0  0  0  0  0  0  0  0  0
    5.5134    0.8697    2.8009 C   0  0  0  0  0  0  0  0  0  0  0  0
    6.4420    2.7406    1.6026 C   0  0  0  0  0  0  0  0  0  0  0  0
    0.6221    4.1157    3.8398 C   0  0  0  0  0  0  0  0  0  0  0  0
    1.5828    5.9360    2.5906 C   0  0  0  0  0  0  0  0  0  0  0  0
    6.6138    1.6345    2.4283 C   0  0  0  0  0  0  0  0  0  0  0  0
    0.7895    5.4819    3.6389 C   0  0  0  0  0  0  0  0  0  0  0  0
  1  2  1  0  0  0  0 
  1  3  1  0  0  0  0 
  4  2  2  0  0  0  0 
  2  5  1  0  0  0  0 
  3  6  2  0  0  0  0 
  7  3  1  0  0  0  0 
  8  4  1  0  0  0  0 
  5  9  2  0  0  0  0 
  6 10  1  0  0  0  0 
 11  7  2  0  0  0  0 
 12  8  2  0  0  0  0 
  9 12  1  0  0  0  0 
 10 13  2  0  0  0  0 
 13 11  1  0  0  0  0 
M  END
> <Name>
BENZENE, 1,1'-METHYLENEBIS-

> <Source>
NIST3DMolFile

> <Tox>
-2.086

> <CAS>
101-81-5

$$$$

  CDK

 16 17  0  0  0  0  0  0  0  0999 V2000
    3.4860    1.5662    0.0000 C   0  0  0  0  0  0  0  0  0  0  0  0
    2.6271    2.0209    0.0000 C   0  0  0  0  0  0  0  0  0  0  0  0
    4.3449    2.0209    0.0000 C   0  0  0  0  0  0  0  0  0  0  0  0
    3.4860    0.5052    0.0000 O   0  0  0  0  0  0  0  0  0  0  0  0
    1.7177    1.5157    0.0000 C   0  0  0  0  0  0  0  0  0  0  0  0
    5.2543    1.5157    0.0000 C   0  0  0  0  0  0  0  0  0  0  0  0
    0.8589    1.9704    0.0000 C   0  0  0  0  0  0  0  0  0  0  0  0
    1.7177    0.5052    0.0000 C   0  0  0  0  0  0  0  0  0  0  0  0
    5.2543    0.5052    0.0000 C   0  0  0  0  0  0  0  0  0  0  0  0
    6.1132    2.0209    0.0000 C   0  0  0  0  0  0  0  0  0  0  0  0
    0.0000    1.4651    0.0000 C   0  0  0  0  0  0  0  0  0  0  0  0
    0.8589    0.0000    0.0000 C   0  0  0  0  0  0  0  0  0  0  0  0
    6.1132    0.0505    0.0000 C   0  0  0  0  0  0  0  0  0  0  0  0
    6.9720    1.5662    0.0000 C   0  0  0  0  0  0  0  0  0  0  0  0
    0.0000    0.4547    0.0000 C   0  0  0  0  0  0  0  0  0  0  0  0
    6.9720    0.5557    0.0000 C   0  0  0  0  0  0  0  0  0  0  0  0
  1  2  1  0  0  0  0 
  1  3  1  0  0  0  0 
  1  4  2  0  0  0  0 
  2  5  1  0  0  0  0 
  3  6  1  0  0  0  0 
  7  5  2  0  0  0  0 
  5  8  1  0  0  0  0 
  9  6  2  0  0  0  0 
  6 10  1  0  0  0  0 
 11  7  1  0  0  0  0 
  8 12  2  0  0  0  0 
 13  9  1  0  0  0  0 
 10 14  2  0  0  0  0 
 15 11  2  0  0  0  0 
 12 15  1  0  0  0  0 
 16 13  2  0  0  0  0 
 14 16  1  0  0  0  0 
M  END
> <Name>
DIBENZYL KETONE

> <Source>
NIST2DMolFile

> <Tox>
-3.131

> <CAS>
102-04-5

$$$$

  CDK

 10  9  0  0  0  0  0  0  0  0999 V2000
    0.0000   -3.4540    0.0000 C   0  0  0  0  0  0  0  0  0  0  0  0
    0.6645   -2.3047    0.0000 C   0  0  0  0  0  0  0  0  0  0  0  0
    1.9934   -2.3047    0.0000 C   0  0  0  0  0  0  0  0  0  0  0  0
    2.6578   -1.1493    0.0000 N   0  0  0  0  0  0  0  0  0  0  0  0
    1.9934   -0.0000    0.0000 C   0  0  0  0  0  0  0  0  0  0  0  0
    3.9928   -1.1493    0.0000 C   0  0  0  0  0  0  0  0  0  0  0  0
    0.6645   -0.0000    0.0000 C   0  0  0  0  0  0  0  0  0  0  0  0
    4.6572   -2.3047    0.0000 C   0  0  0  0  0  0  0  0  0  0  0  0
    0.0000   -1.1493    0.0000 C   0  0  0  0  0  0  0  0  0  0  0  0
    5.9861   -2.3047    0.0000 C   0  0  0  0  0  0  0  0  0  0  0  0
  1  2  1  0  0  0  0 
  2  3  1  0  0  0  0 
  3  4  1  0  0  0  0 
  4  5  1  0  0  0  0 
  4  6  1  0  0  0  0 
  5  7  1  0  0  0  0 
  6  8  1  0  0  0  0 
  7  9  1  0  0  0  0 
  8 10  1  0  0  0  0 
M  END
> <Name>
TRIPROPYLAMINE

> <Source>
DSSTox2DMolFile

> <Tox>
0.179

> <CAS>
102-69-2

$$$$

  CDK

 10  9  0  0  0  0  0  0  0  0999 V2000
    3.3305   -3.4623    0.0000 N   0  0  0  0  0  0  0  0  0  0  0  0
    2.0007   -3.4623    0.0000 C   0  0  0  0  0  0  0  0  0  0  0  0
    3.9895   -4.6124    0.0000 C   0  0  0  0  0  0  0  0  0  0  0  0
    3.9895   -2.3062    0.0000 C   0  0  0  0  0  0  0  0  0  0  0  0
    1.3298   -4.6124    0.0000 C   0  0  0  0  0  0  0  0  0  0  0  0
    5.3193   -4.6124    0.0000 C   0  0  0  0  0  0  0  0  0  0  0  0
    3.3305   -1.1561    0.0000 C   0  0  0  0  0  0  0  0  0  0  0  0
    0.0000   -4.6124    0.0000 C   0  0  0  0  0  0  0  0  0  0  0  0
    5.9902   -5.7685    0.0000 C   0  0  0  0  0  0  0  0  0  0  0  0
    3.9895   -0.0000    0.0000 C   0  0  0  0  0  0  0  0  0  0  0  0
  1  2  1  0  0  0  0 
  1  3  1  0  0  0  0 
  1  4  1  0  0  0  0 
  2  5  1  0  0  0  0 
  3  6  1  0  0  0  0 
  4  7  1  0  0  0  0 
  5  8  2  0  0  0  0 
  6  9  2  0  0  0  0 
  7 10  2  0  0  0  0 
M  END
> <Name>
TRIALLYLAMINE

> <Source>
DSSTox2DMolFile

> <Tox>
0.561

> <CAS>
102-70-5

$$$$

  CDK

 10  9  0  0  0  0  0  0  0  0999 V2000
    0.0000   -3.4540    0.0000 O   0  0  0  0  0  0  0  0  0  0  0  0
    0.6645   -2.3047    0.0000 C   0  0  0  0  0  0  0  0  0  0  0  0
    1.9934   -2.3047    0.0000 C   0  0  0  0  0  0  0  0  0  0  0  0
    2.6578   -1.1493    0.0000 N   0  0  0  0  0  0  0  0  0  0  0  0
    1.9934   -0.0000    0.0000 C   0  0  0  0  0  0  0  0  0  0  0  0
    3.9928   -1.1493    0.0000 C   0  0  0  0  0  0  0  0  0  0  0  0
    0.6645   -0.0000    0.0000 C   0  0  0  0  0  0  0  0  0  0  0  0
    4.6572   -2.3047    0.0000 C   0  0  0  0  0  0  0  0  0  0  0  0
    0.0000   -1.1493    0.0000 O   0  0  0  0  0  0  0  0  0  0  0  0
    5.9861   -2.3047    0.0000 O   0  0  0  0  0  0  0  0  0  0  0  0
  1  2  1  0  0  0  0 
  2  3  1  0  0  0  0 
  3  4  1  0  0  0  0 
  4  5  1  0  0  0  0 
  4  6  1  0  0  0  0 
  5  7  1  0  0  0  0 
  6  8  1  0  0  0  0 
  7  9  1  0  0  0  0 
  8 10  1  0  0  0  0 
M  END
> <Name>
TRIETHANOLAMINE

> <Source>
DSSTox2DMolFile

> <Tox>
-5.445

> <CAS>
102-71-6

$$$$

  CDK

 13 12  0  0  0  0  0  0  0  0999 V2000
    3.9927   -1.1493    0.0000 O   0  0  0  0  0  0  0  0  0  0  0  0
    2.6578   -1.1493    0.0000 C   0  0  0  0  0  0  0  0  0  0  0  0
    1.9934   -2.3047    0.0000 O   0  0  0  0  0  0  0  0  0  0  0  0
    1.9934   -0.0000    0.0000 C   0  0  0  0  0  0  0  0  0  0  0  0
    2.6578   -3.4540    0.0000 C   0  0  0  0  0  0  0  0  0  0  0  0
    0.6645   -0.0000    0.0000 C   0  0  0  0  0  0  0  0  0  0  0  0
    1.9934   -4.6093    0.0000 C   0  0  0  0  0  0  0  0  0  0  0  0
    2.6578   -5.7586    0.0000 C   0  0  0  0  0  0  0  0  0  0  0  0
    0.6645   -4.6093    0.0000 C   0  0  0  0  0  0  0  0  0  0  0  0
    3.9927   -5.7586    0.0000 C   0  0  0  0  0  0  0  0  0  0  0  0
    0.0000   -5.7586    0.0000 C   0  0  0  0  0  0  0  0  0  0  0  0
    4.6572   -4.6093    0.0000 C   0  0  0  0  0  0  0  0  0  0  0  0
    5.9861   -4.6093    0.0000 C   0  0  0  0  0  0  0  0  0  0  0  0
  1  2  2  0  0  0  0 
  2  3  1  0  0  0  0 
  2  4  1  0  0  0  0 
  3  5  1  0  0  0  0 
  4  6  2  0  0  0  0 
  5  7  1  0  0  0  0 
  7  8  1  0  0  0  0 
  7  9  1  0  0  0  0 
  8 10  1  0  0  0  0 
  9 11  1  0  0  0  0 
 10 12  1  0  0  0  0 
 12 13  1  0  0  0  0 
M  END
> <Name>
2-ETHYLHEXYL ACRYLATE

> <Source>
DSSTox2DMolFile

> <Tox>
-0.750

> <CAS>
103-11-7

$$$$

  CDK

 13 13  0  0  0  0  0  0  0  0999 V2000
    2.6629   -2.3084    0.0000 C   0  0  0  0  0  0  0  0  0  0  0  0
    3.9944   -2.3084    0.0000 C   0  0  0  0  0  0  0  0  0  0  0  0
    1.9972   -3.4583    0.0000 O   0  0  0  0  0  0  0  0  0  0  0  0
    1.9972   -1.1585    0.0000 O   0  0  0  0  0  0  0  0  0  0  0  0
    4.6514   -3.4583    0.0000 C   0  0  0  0  0  0  0  0  0  0  0  0
    0.6657   -1.1585    0.0000 C   0  0  0  0  0  0  0  0  0  0  0  0
    5.9829   -3.4583    0.0000 C   0  0  0  0  0  0  0  0  0  0  0  0
    0.0000   -0.0000    0.0000 C   0  0  0  0  0  0  0  0  0  0  0  0
    6.6486   -2.3084    0.0000 C   0  0  0  0  0  0  0  0  0  0  0  0
    6.6486   -4.6082    0.0000 C   0  0  0  0  0  0  0  0  0  0  0  0
    7.9801   -2.3084    0.0000 C   0  0  0  0  0  0  0  0  0  0  0  0
    7.9801   -4.6082    0.0000 C   0  0  0  0  0  0  0  0  0  0  0  0
    8.6458   -3.4583    0.0000 C   0  0  0  0  0  0  0  0  0  0  0  0
  1  2  1  0  0  0  0 
  1  3  2  0  0  0  0 
  1  4  1  0  0  0  0 
  2  5  2  0  0  0  0 
  4  6  1  0  0  0  0 
  5  7  1  0  0  0  0 
  6  8  1  0  0  0  0 
  7  9  1  0  0  0  0 
  7 10  2  0  0  0  0 
  9 11  2  0  0  0  0 
 12 10  1  0  0  0  0 
 11 13  1  0  0  0  0 
 13 12  2  0  0  0  0 
M  END
> <Name>
CINNAMIC ACID, ETHYL ESTER

> <Source>
DSSTox2DMolFile

> <Tox>
-2.485

> <CAS>
103-36-6

$$$$

  CDK

 12 12  0  0  0  0  0  0  0  0999 V2000
   -2.7650   -0.3291   -0.1172 C   0  0  0  0  0  0  0  0  0  0  0  0
   -3.2633   -1.6026   -0.7394 C   0  0  0  0  0  0  0  0  0  0  0  0
   -3.2090    0.2388    0.8615 O   0  0  0  0  0  0  0  0  0  0  0  0
   -1.6962    0.1994   -0.7868 O   0  0  0  0  0  0  0  0  0  0  0  0
   -1.0965    1.4020   -0.3283 C   0  0  0  0  0  0  0  0  0  0  0  0
   -0.1245    1.1983    0.8340 C   0  0  0  0  0  0  0  0  0  0  0  0
    1.1190    0.4750    0.4309 C   0  0  0  0  0  0  0  0  0  0  0  0
    2.0519    1.0971   -0.4018 C   0  0  0  0  0  0  0  0  0  0  0  0
    1.3670   -0.8178    0.8934 C   0  0  0  0  0  0  0  0  0  0  0  0
    3.2153    0.4320   -0.7687 C   0  0  0  0  0  0  0  0  0  0  0  0
    2.5334   -1.4800    0.5254 C   0  0  0  0  0  0  0  0  0  0  0  0
    3.4580   -0.8573   -0.3055 C   0  0  0  0  0  0  0  0  0  0  0  0
  1  2  1  0  0  0  0 
  1  3  2  0  0  0  0 
  1  4  1  0  0  0  0 
  4  5  1  0  0  0  0 
  5  6  1  0  0  0  0 
  6  7  1  0  0  0  0 
  7  8  1  0  0  0  0 
  7  9  2  0  0  0  0 
  8 10  2  0  0  0  0 
 11  9  1  0  0  0  0 
 10 12  1  0  0  0  0 
 12 11  2  0  0  0  0 
M  END
> <Name>
B-PHENYLETHYL ACETATE

> <Source>
DougDB3DMolFile

> <Tox>
-1.503

> <CAS>
103-45-7

$$$$

  CDK

  9  9  0  0  0  0  0  0  0  0999 V2000
    2.0190   -3.4571    0.0000 C   0  0  0  0  0  0  0  0  0  0  0  0
    2.7151   -4.6076    0.0000 C   0  0  0  0  0  0  0  0  0  0  0  0
    0.6960   -3.4571    0.0000 C   0  0  0  0  0  0  0  0  0  0  0  0
    2.6518   -2.2952    0.0000 C   0  0  0  0  0  0  0  0  0  0  0  0
    2.0190   -5.7523    0.0000 C   0  0  0  0  0  0  0  0  0  0  0  0
    0.0000   -4.6076    0.0000 C   0  0  0  0  0  0  0  0  0  0  0  0
    1.9903   -1.1447    0.0000 C   0  0  0  0  0  0  0  0  0  0  0  0
    0.6960   -5.7523    0.0000 C   0  0  0  0  0  0  0  0  0  0  0  0
    2.6173   -0.0000    0.0000 Br  0  0  0  0  0  0  0  0  0  0  0  0
  1  2  2  0  0  0  0 
  1  3  1  0  0  0  0 
  1  4  1  0  0  0  0 
  2  5  1  0  0  0  0 
  6  3  2  0  0  0  0 
  4  7  1  0  0  0  0 
  5  8  2  0  0  0  0 
  8  6  1  0  0  0  0 
  7  9  1  0  0  0  0 
M  END
> <Name>
(2-BROMOETHYL)BENZENE

> <Source>
DSSTox2DMolFile

> <Tox>
-0.611

> <CAS>
103-63-9

$$$$

  CDK

  9  9  0  0  0  0  0  0  0  0999 V2000
    1.9925   -1.1548    0.0000 N   0  0  0  0  0  0  0  0  0  0  0  0
    3.3269   -1.1548    0.0000 C   0  0  0  0  0  0  0  0  0  0  0  0
    1.3283   -0.0000    0.0000 C   0  0  0  0  0  0  0  0  0  0  0  0
    3.9910   -0.0000    0.0000 C   0  0  0  0  0  0  0  0  0  0  0  0
    3.9910   -2.3037    0.0000 C   0  0  0  0  0  0  0  0  0  0  0  0
    0.0000   -0.0000    0.0000 C   0  0  0  0  0  0  0  0  0  0  0  0
    5.3194   -0.0000    0.0000 C   0  0  0  0  0  0  0  0  0  0  0  0
    5.3194   -2.3037    0.0000 C   0  0  0  0  0  0  0  0  0  0  0  0
    5.9836   -1.1548    0.0000 C   0  0  0  0  0  0  0  0  0  0  0  0
  1  2  1  0  0  0  0 
  1  3  1  0  0  0  0 
  2  4  2  0  0  0  0 
  2  5  1  0  0  0  0 
  3  6  1  0  0  0  0 
  4  7  1  0  0  0  0 
  8  5  2  0  0  0  0 
  7  9  2  0  0  0  0 
  9  8  1  0  0  0  0 
M  END
> <Name>
N-ETHYLANILINE

> <Source>
DSSTox2DMolFile

> <Tox>
-0.690

> <CAS>
103-69-5

$$$$

  CDK

  9  9  0  0  0  0  0  0  0  0999 V2000
   -0.0143    0.2968    0.0000 C   0  0  0  0  0  0  0  0  0  0  0  0
    0.3489   -1.0558    0.0000 C   0  0  0  0  0  0  0  0  0  0  0  0
    0.9664    1.2973    0.0000 C   0  0  0  0  0  0  0  0  0  0  0  0
   -1.3684    0.7275    0.0000 N   0  0  0  0  0  0  0  0  0  0  0  0
    1.6956   -1.3992    0.0000 C   0  0  0  0  0  0  0  0  0  0  0  0
    2.3069    0.9322    0.0000 C   0  0  0  0  0  0  0  0  0  0  0  0
   -2.4326    0.0509    0.0000 C   0  0  0  0  0  0  0  0  0  0  0  0
    2.6734   -0.4104    0.0000 C   0  0  0  0  0  0  0  0  0  0  0  0
   -3.5356   -0.3624    0.0000 O   0  0  0  0  0  0  0  0  0  0  0  0
  1  2  1  0  0  0  0 
  1  3  2  0  0  0  0 
  1  4  1  0  0  0  0 
  2  5  2  0  0  0  0 
  6  3  1  0  0  0  0 
  4  7  2  0  0  0  0 
  5  8  1  0  0  0  0 
  8  6  2  0  0  0  0 
  7  9  2  0  0  0  0 
M  END
> <Name>
PHENYL ISOCYANATE

> <Source>
DougDB3DMolFile

> <Tox>
0.410

> <CAS>
103-71-9

$$$$

  CDK

 10 10  0  0  0  0  0  0  0  0999 V2000
    0.9953    0.8460    0.0000 C   0  0  0  0  0  0  0  0  0  0  0  0
    1.4930    1.7418    0.0000 C   0  0  0  0  0  0  0  0  0  0  0  0
    1.4930    0.0000    0.0000 Cl  0  0  0  0  0  0  0  0  0  0  0  0
    0.0000    0.8460    0.0000 O   0  0  0  0  0  0  0  0  0  0  0  0
    2.4883    1.7418    0.0000 C   0  0  0  0  0  0  0  0  0  0  0  0
    2.9859    2.5878    0.0000 C   0  0  0  0  0  0  0  0  0  0  0  0
    2.9859    0.8460    0.0000 C   0  0  0  0  0  0  0  0  0  0  0  0
    3.9812    2.5878    0.0000 C   0  0  0  0  0  0  0  0  0  0  0  0
    3.9812    0.8460    0.0000 C   0  0  0  0  0  0  0  0  0  0  0  0
    4.4789    1.7418    0.0000 C   0  0  0  0  0  0  0  0  0  0  0  0
  1  2  1  0  0  0  0 
  1  3  1  0  0  0  0 
  1  4  2  0  0  0  0 
  2  5  1  0  0  0  0 
  6  5  2  0  0  0  0 
  5  7  1  0  0  0  0 
  8  6  1  0  0  0  0 
  7  9  2  0  0  0  0 
 10  8  2  0  0  0  0 
  9 10  1  0  0  0  0 
M  END
> <Name>
PHENYLACETYL CHLORIDE

> <Source>
NIST2DMolFile

> <Tox>
-0.701

> <CAS>
103-80-0

$$$$

  CDK

 11 11  0  0  0  0  0  0  0  0999 V2000
    0.6773   -0.0000    0.0000 C   0  0  0  0  0  0  0  0  0  0  0  0
    0.0000   -1.1753    0.0000 C   0  0  0  0  0  0  0  0  0  0  0  0
    0.6640   -2.3241    0.0000 C   0  0  0  0  0  0  0  0  0  0  0  0
    1.9921   -2.3241    0.0000 C   0  0  0  0  0  0  0  0  0  0  0  0
    2.6561   -1.1753    0.0000 C   0  0  0  0  0  0  0  0  0  0  0  0
    2.6561   -3.4729    0.0000 C   0  0  0  0  0  0  0  0  0  0  0  0
    3.9842   -1.1753    0.0000 C   0  0  0  0  0  0  0  0  0  0  0  0
    3.9842   -3.4729    0.0000 C   0  0  0  0  0  0  0  0  0  0  0  0
    4.6482   -2.3241    0.0000 C   0  0  0  0  0  0  0  0  0  0  0  0
    5.9763   -2.3241    0.0000 O   0  0  0  0  0  0  0  0  0  0  0  0
    6.6403   -3.4729    0.0000 C   0  0  0  0  0  0  0  0  0  0  0  0
  1  2  1  0  0  0  0 
  2  3  2  0  0  0  0 
  3  4  1  0  0  0  0 
  4  5  2  0  0  0  0 
  4  6  1  0  0  0  0 
  5  7  1  0  0  0  0 
  8  6  2  0  0  0  0 
  7  9  2  0  0  0  0 
  9  8  1  0  0  0  0 
  9 10  1  0  0  0  0 
 10 11  1  0  0  0  0 
M  END
> <Name>
ANETHOLE

> <Source>
DSSTox2DMolFile

> <Tox>
-1.155

> <CAS>
104-46-1

$$$$

  CDK

  9  9  0  0  0  0  0  0  0  0999 V2000
    1.4071    1.2838    0.1506 N   0  0  0  0  0  0  0  0  0  0  0  0
    1.9925   -0.0597   -0.1506 C   0  0  0  0  0  0  0  0  0  0  0  0
   -0.0217    1.4433   -0.2142 C   0  0  0  0  0  0  0  0  0  0  0  0
    1.0928   -0.8939   -1.0646 C   0  0  0  0  0  0  0  0  0  0  0  0
    2.2855   -0.7870    1.1577 C   0  0  0  0  0  0  0  0  0  0  0  0
   -0.8386    0.2129    0.1825 C   0  0  0  0  0  0  0  0  0  0  0  0
   -0.3301   -1.0372   -0.5444 C   0  0  0  0  0  0  0  0  0  0  0  0
   -2.3208    0.4660   -0.0980 C   0  0  0  0  0  0  0  0  0  0  0  0
   -3.2091   -0.5920    0.5181 C   0  0  0  0  0  0  0  0  0  0  0  0
  1  2  1  0  0  0  0 
  1  3  1  0  0  0  0 
  2  4  1  0  0  0  0 
  2  5  1  0  0  0  0 
  6  3  1  0  0  0  0 
  4  7  1  0  0  0  0 
  7  6  1  0  0  0  0 
  6  8  1  0  0  0  0 
  8  9  1  0  0  0  0 
M  END
> <Name>
2-METHYL-5-ETHYLPIPERIDINE

> <Source>
DougDB3DMolFile

> <Tox>
0.458

> <CAS>
104-89-2

$$$$

  CDK

 10 10  0  0  0  0  0  0  0  0999 V2000
    4.6448   -1.1562    0.0000 C   0  0  0  0  0  0  0  0  0  0  0  0
    3.9869   -2.3058    0.0000 C   0  0  0  0  0  0  0  0  0  0  0  0
    3.9869   -0.0000    0.0000 C   0  0  0  0  0  0  0  0  0  0  0  0
    5.9737   -1.1562    0.0000 C   0  0  0  0  0  0  0  0  0  0  0  0
    2.6579   -2.3058    0.0000 C   0  0  0  0  0  0  0  0  0  0  0  0
    2.6579   -0.0000    0.0000 C   0  0  0  0  0  0  0  0  0  0  0  0
    6.6449   -0.0000    0.0000 O   0  0  0  0  0  0  0  0  0  0  0  0
    1.9868   -1.1562    0.0000 C   0  0  0  0  0  0  0  0  0  0  0  0
    0.6578   -1.1562    0.0000 C   0  0  0  0  0  0  0  0  0  0  0  0
    0.0000   -2.3058    0.0000 O   0  0  0  0  0  0  0  0  0  0  0  0
  1  2  1  0  0  0  0 
  1  3  1  0  0  0  0 
  1  4  1  0  0  0  0 
  2  5  1  0  0  0  0 
  6  3  1  0  0  0  0 
  4  7  1  0  0  0  0 
  5  8  1  0  0  0  0 
  8  6  1  0  0  0  0 
  8  9  1  0  0  0  0 
  9 10  1  0  0  0  0 
M  END
> <Name>
1,4-Cyclohexanedimethanol

> <Source>
DSSTox2DMolFile

> <Tox>
-3.511

> <CAS>
105-08-8

$$$$

  CDK

  7  6  0  0  0  0  0  0  0  0999 V2000
    1.1524   -2.0018    0.0000 C   0  0  0  0  0  0  0  0  0  0  0  0
    1.1524   -3.3287    0.0000 O   0  0  0  0  0  0  0  0  0  0  0  0
    2.3048   -1.3269    0.0000 O   0  0  0  0  0  0  0  0  0  0  0  0
    0.0000   -1.3269    0.0000 C   0  0  0  0  0  0  0  0  0  0  0  0
    3.4389   -2.0018    0.0000 C   0  0  0  0  0  0  0  0  0  0  0  0
    0.0000   -0.0000    0.0000 Cl  0  0  0  0  0  0  0  0  0  0  0  0
    4.5913   -1.3269    0.0000 C   0  0  0  0  0  0  0  0  0  0  0  0
  1  2  2  0  0  0  0 
  1  3  1  0  0  0  0 
  1  4  1  0  0  0  0 
  3  5  1  0  0  0  0 
  4  6  1  0  0  0  0 
  5  7  1  0  0  0  0 
M  END
> <Name>
ETHYL CHLOROACETATE

> <Source>
DSSTox2DMolFile

> <Tox>
0.688

> <CAS>
105-39-5

$$$$

  CDK

  7  6  0  0  0  0  0  0  0  0999 V2000
    2.6592   -0.0000    0.0000 O   0  0  0  0  0  0  0  0  0  0  0  0
    1.9979   -1.1550    0.0000 C   0  0  0  0  0  0  0  0  0  0  0  0
    0.6660   -1.1550    0.0000 N   0  0  0  0  0  0  0  0  0  0  0  0
    2.6592   -2.3053    0.0000 O   0  0  0  0  0  0  0  0  0  0  0  0
    0.0000   -2.3053    0.0000 C   0  0  0  0  0  0  0  0  0  0  0  0
    3.9912   -2.3053    0.0000 C   0  0  0  0  0  0  0  0  0  0  0  0
    4.6571   -1.1550    0.0000 C   0  0  0  0  0  0  0  0  0  0  0  0
  1  2  2  0  0  0  0 
  2  3  1  0  0  0  0 
  2  4  1  0  0  0  0 
  3  5  1  0  0  0  0 
  4  6  1  0  0  0  0 
  6  7  1  0  0  0  0 
M  END
> <Name>
N-METHYLCARBAMIC ACID, ET ESTER

> <Source>
DSSTox2DMolFile

> <Tox>
-0.043

> <CAS>
105-40-8

$$$$

  CDK

  9  9  0  0  0  0  0  0  0  0999 V2000
    4.6082   -0.0000    0.0000 O   0  0  0  0  0  0  0  0  0  0  0  0
    3.4561   -0.6636    0.0000 C   0  0  0  0  0  0  0  0  0  0  0  0
    3.4561   -1.9953    0.0000 C   0  0  0  0  0  0  0  0  0  0  0  0
    2.3041   -0.0000    0.0000 C   0  0  0  0  0  0  0  0  0  0  0  0
    4.6082   -2.6589    0.0000 C   0  0  0  0  0  0  0  0  0  0  0  0
    2.3041   -2.6589    0.0000 C   0  0  0  0  0  0  0  0  0  0  0  0
    1.1520   -0.6636    0.0000 C   0  0  0  0  0  0  0  0  0  0  0  0
    1.1520   -1.9953    0.0000 C   0  0  0  0  0  0  0  0  0  0  0  0
    0.0000   -2.6589    0.0000 C   0  0  0  0  0  0  0  0  0  0  0  0
  1  2  1  0  0  0  0 
  2  3  2  0  0  0  0 
  2  4  1  0  0  0  0 
  3  5  1  0  0  0  0 
  3  6  1  0  0  0  0 
  7  4  2  0  0  0  0 
  6  8  2  0  0  0  0 
  8  7  1  0  0  0  0 
  8  9  1  0  0  0  0 
M  END
> <Name>
2,4-DIMETHYLPHENOL

> <Source>
DSSTox2DMolFile

> <Tox>
-0.991

> <CAS>
105-67-9

$$$$

  CDK

  8  8  0  0  0  0  0  0  0  0999 V2000
    1.5079    1.7592    0.0000 C   0  0  0  0  0  0  0  0  0  0  0  0
    1.0053    0.8545    0.0000 C   0  0  0  0  0  0  0  0  0  0  0  0
    2.5132    1.7592    0.0000 C   0  0  0  0  0  0  0  0  0  0  0  0
    1.5079    0.0000    0.0000 C   0  0  0  0  0  0  0  0  0  0  0  0
    0.0000    0.8545    0.0000 Cl  0  0  0  0  0  0  0  0  0  0  0  0
    2.9655    0.8545    0.0000 C   0  0  0  0  0  0  0  0  0  0  0  0
    2.4629    0.0000    0.0000 C   0  0  0  0  0  0  0  0  0  0  0  0
    3.9708    0.8545    0.0000 Br  0  0  0  0  0  0  0  0  0  0  0  0
  1  2  2  0  0  0  0 
  3  1  1  0  0  0  0 
  2  4  1  0  0  0  0 
  2  5  1  0  0  0  0 
  6  3  2  0  0  0  0 
  4  7  2  0  0  0  0 
  7  6  1  0  0  0  0 
  6  8  1  0  0  0  0 
M  END
> <Name>
P-BROMOCHLOROBENZENE

> <Source>
NIST2DMolFile

> <Tox>
-0.588

> <CAS>
106-39-8

$$$$

  CDK

  8  8  0  0  0  0  0  0  0  0999 V2000
    0.0000   -1.1545    0.0000 Cl  0  0  0  0  0  0  0  0  0  0  0  0
    1.3300   -1.1545    0.0000 C   0  0  0  0  0  0  0  0  0  0  0  0
    1.9950   -0.0000    0.0000 C   0  0  0  0  0  0  0  0  0  0  0  0
    1.9950   -2.3036    0.0000 C   0  0  0  0  0  0  0  0  0  0  0  0
    3.3250   -0.0000    0.0000 C   0  0  0  0  0  0  0  0  0  0  0  0
    3.3250   -2.3036    0.0000 C   0  0  0  0  0  0  0  0  0  0  0  0
    3.9900   -1.1545    0.0000 C   0  0  0  0  0  0  0  0  0  0  0  0
    5.3201   -1.1545    0.0000 Cl  0  0  0  0  0  0  0  0  0  0  0  0
  1  2  1  0  0  0  0 
  2  3  2  0  0  0  0 
  2  4  1  0  0  0  0 
  3  5  1  0  0  0  0 
  6  4  2  0  0  0  0 
  5  7  2  0  0  0  0 
  7  6  1  0  0  0  0 
  7  8  1  0  0  0  0 
M  END
> <Name>
1,4-DICHLOROBENZENE

> <Source>
DSSTox2DMolFile

> <Tox>
0.241

> <CAS>
106-46-7

$$$$

  CDK

  8  8  0  0  0  0  0  0  0  0999 V2000
    0.0000   -1.1545    0.0000 N   0  0  0  0  0  0  0  0  0  0  0  0
    1.3300   -1.1545    0.0000 C   0  0  0  0  0  0  0  0  0  0  0  0
    1.9950   -0.0000    0.0000 C   0  0  0  0  0  0  0  0  0  0  0  0
    1.9950   -2.3036    0.0000 C   0  0  0  0  0  0  0  0  0  0  0  0
    3.3250   -0.0000    0.0000 C   0  0  0  0  0  0  0  0  0  0  0  0
    3.3250   -2.3036    0.0000 C   0  0  0  0  0  0  0  0  0  0  0  0
    3.9900   -1.1545    0.0000 C   0  0  0  0  0  0  0  0  0  0  0  0
    5.3201   -1.1545    0.0000 C   0  0  0  0  0  0  0  0  0  0  0  0
  1  2  1  0  0  0  0 
  2  3  2  0  0  0  0 
  2  4  1  0  0  0  0 
  3  5  1  0  0  0  0 
  6  4  2  0  0  0  0 
  5  7  2  0  0  0  0 
  7  6  1  0  0  0  0 
  7  8  1  0  0  0  0 
M  END
> <Name>
P-TOLUIDINE

> <Source>
DSSTox2DMolFile

> <Tox>
-0.544

> <CAS>
106-49-0

$$$$

  CDK

  4  3  0  0  0  0  0  0  0  0999 V2000
    0.0000   -0.6716    0.0000 C   0  0  0  0  0  0  0  0  0  0  0  0
    1.1537   -0.0000    0.0000 C   0  0  0  0  0  0  0  0  0  0  0  0
    2.2902   -0.6716    0.0000 C   0  0  0  0  0  0  0  0  0  0  0  0
    3.4440   -0.0000    0.0000 C   0  0  0  0  0  0  0  0  0  0  0  0
  1  2  2  0  0  0  0 
  2  3  1  0  0  0  0 
  3  4  1  0  0  0  0 
M  END
> <Name>
1-BUTENE

> <Source>
DSSTox2DMolFile

> <Tox>
3.352

> <CAS>
106-98-9

$$$$

  CDK

  4  3  0  0  0  0  0  0  0  0999 V2000
    0.0000   -0.0000    0.0000 C   0  0  0  0  0  0  0  0  0  0  0  0
    1.1513   -0.6638    0.0000 C   0  0  0  0  0  0  0  0  0  0  0  0
    2.3061   -0.0000    0.0000 C   0  0  0  0  0  0  0  0  0  0  0  0
    3.4575   -0.6638    0.0000 C   0  0  0  0  0  0  0  0  0  0  0  0
  1  2  2  0  0  0  0 
  2  3  1  0  0  0  0 
  3  4  2  0  0  0  0 
M  END
> <Name>
1,3-BUTADIENE

> <Source>
DSSTox2DMolFile

> <Tox>
3.324

> <CAS>
106-99-0

$$$$

  CDK

  4  3  0  0  0  0  0  0  0  0999 V2000
    0.0000   -0.0000    0.0000 C   0  0  0  0  0  0  0  0  0  0  0  0
    1.1513   -0.6638    0.0000 C   0  0  0  0  0  0  0  0  0  0  0  0
    2.3061   -0.0000    0.0000 C   0  0  0  0  0  0  0  0  0  0  0  0
    3.4575   -0.6638    0.0000 O   0  0  0  0  0  0  0  0  0  0  0  0
  1  2  2  0  0  0  0 
  2  3  1  0  0  0  0 
  3  4  2  0  0  0  0 
M  END
> <Name>
ACROLEIN

> <Source>
DSSTox2DMolFile

> <Tox>
2.438

> <CAS>
107-02-8

$$$$

  CDK

  4  3  0  0  0  0  0  0  0  0999 V2000
    1.3307   -0.0000    0.0000 C   0  0  0  0  0  0  0  0  0  0  0  0
    1.9877   -1.1548    0.0000 C   0  0  0  0  0  0  0  0  0  0  0  0
    0.0000   -0.0000    0.0000 S   0  0  0  0  0  0  0  0  0  0  0  0
    3.3184   -1.1548    0.0000 C   0  0  0  0  0  0  0  0  0  0  0  0
  1  2  1  0  0  0  0 
  1  3  1  0  0  0  0 
  2  4  1  0  0  0  0 
M  END
> <Name>
1-PROPANETHIOL

> <Source>
DSSTox2DMolFile

> <Tox>
2.188

> <CAS>
107-03-9

$$$$

  CDK

  4  3  0  0  0  0  0  0  0  0999 V2000
    0.0000   -0.0000    0.0000 Cl  0  0  0  0  0  0  0  0  0  0  0  0
    1.1513   -0.6638    0.0000 C   0  0  0  0  0  0  0  0  0  0  0  0
    2.3061   -0.0000    0.0000 C   0  0  0  0  0  0  0  0  0  0  0  0
    3.4575   -0.6638    0.0000 O   0  0  0  0  0  0  0  0  0  0  0  0
  1  2  1  0  0  0  0 
  2  3  1  0  0  0  0 
  3  4  1  0  0  0  0 
M  END
> <Name>
2-CHLOROETHANOL

> <Source>
DSSTox2DMolFile

> <Tox>
0.856

> <CAS>
107-07-3

$$$$

  CDK

  4  3  0  0  0  0  0  0  0  0999 V2000
    3.4575   -0.0000    0.0000 O   0  0  0  0  0  0  0  0  0  0  0  0
    2.3061   -0.6638    0.0000 C   0  0  0  0  0  0  0  0  0  0  0  0
    1.1513   -0.0000    0.0000 O   0  0  0  0  0  0  0  0  0  0  0  0
    0.0000   -0.6638    0.0000 C   0  0  0  0  0  0  0  0  0  0  0  0
  1  2  2  0  0  0  0 
  2  3  1  0  0  0  0 
  3  4  1  0  0  0  0 
M  END
> <Name>
METHYLFORMATE

> <Source>
DSSTox2DMolFile

> <Tox>
2.768

> <CAS>
107-31-3

$$$$

  CDK

  8  7  0  0  0  0  0  0  0  0999 V2000
    0.0000   -0.6676    0.0000 C   0  0  0  0  0  0  0  0  0  0  0  0
    1.1683   -1.3260    0.0000 C   0  0  0  0  0  0  0  0  0  0  0  0
    2.3042   -0.6676    0.0000 C   0  0  0  0  0  0  0  0  0  0  0  0
    1.1683   -2.6520    0.0000 C   0  0  0  0  0  0  0  0  0  0  0  0
    3.4679   -1.3260    0.0000 C   0  0  0  0  0  0  0  0  0  0  0  0
    4.6363   -0.6676    0.0000 C   0  0  0  0  0  0  0  0  0  0  0  0
    3.4679   -2.6520    0.0000 C   0  0  0  0  0  0  0  0  0  0  0  0
    3.4679   -0.0000    0.0000 C   0  0  0  0  0  0  0  0  0  0  0  0
  1  2  1  0  0  0  0 
  2  3  2  0  0  0  0 
  2  4  1  0  0  0  0 
  3  5  1  0  0  0  0 
  5  6  1  0  0  0  0 
  5  7  1  0  0  0  0 
  5  8  1  0  0  0  0 
M  END
> <Name>
2,4,4-TRIMETHYL-2-PENTENE

> <Source>
DSSTox2DMolFile

> <Tox>
1.555

> <CAS>
107-40-4

$$$$

  CDK

  6  5  0  0  0  0  0  0  0  0999 V2000
    1.1691   -1.3355    0.0000 C   0  0  0  0  0  0  0  0  0  0  0  0
    2.3244   -1.9917    0.0000 C   0  0  0  0  0  0  0  0  0  0  0  0
    0.0000   -1.9917    0.0000 O   0  0  0  0  0  0  0  0  0  0  0  0
    3.4797   -1.3355    0.0000 C   0  0  0  0  0  0  0  0  0  0  0  0
    4.6211   -1.9917    0.0000 C   0  0  0  0  0  0  0  0  0  0  0  0
    3.4797   -0.0000    0.0000 O   0  0  0  0  0  0  0  0  0  0  0  0
  1  2  1  0  0  0  0 
  1  3  1  0  0  0  0 
  2  4  1  0  0  0  0 
  4  5  1  0  0  0  0 
  4  6  1  0  0  0  0 
M  END
> <Name>
1,3-BUTANEDIOL

> <Source>
DSSTox2DMolFile

> <Tox>
-1.697

> <CAS>
107-88-0

$$$$

  CDK

  6  5  0  0  0  0  0  0  0  0999 V2000
    4.6084   -1.9954    0.0000 C   0  0  0  0  0  0  0  0  0  0  0  0
    3.4563   -1.3318    0.0000 N   0  0  0  0  0  0  0  0  0  0  0  0
    2.3042   -1.9954    0.0000 C   0  0  0  0  0  0  0  0  0  0  0  0
    3.4563   -0.0000    0.0000 C   0  0  0  0  0  0  0  0  0  0  0  0
    1.1521   -1.3318    0.0000 C   0  0  0  0  0  0  0  0  0  0  0  0
    0.0000   -1.9954    0.0000 O   0  0  0  0  0  0  0  0  0  0  0  0
  1  2  1  0  0  0  0 
  2  3  1  0  0  0  0 
  2  4  1  0  0  0  0 
  3  5  1  0  0  0  0 
  5  6  1  0  0  0  0 
M  END
> <Name>
2-DIMETHYLAMINOETHANOL

> <Source>
DSSTox2DMolFile

> <Tox>
0.502

> <CAS>
108-01-0

$$$$

  CDK

  7  6  0  0  0  0  0  0  0  0999 V2000
    2.3037   -1.9950    0.0000 N   0  0  0  0  0  0  0  0  0  0  0  0
    3.4555   -1.3315    0.0000 C   0  0  0  0  0  0  0  0  0  0  0  0
    1.1518   -1.3315    0.0000 C   0  0  0  0  0  0  0  0  0  0  0  0
    3.4555   -0.0000    0.0000 C   0  0  0  0  0  0  0  0  0  0  0  0
    4.6073   -1.9950    0.0000 C   0  0  0  0  0  0  0  0  0  0  0  0
    0.0000   -1.9950    0.0000 C   0  0  0  0  0  0  0  0  0  0  0  0
    1.1518   -0.0000    0.0000 C   0  0  0  0  0  0  0  0  0  0  0  0
  1  2  1  0  0  0  0 
  1  3  1  0  0  0  0 
  2  4  1  0  0  0  0 
  2  5  1  0  0  0  0 
  3  6  1  0  0  0  0 
  3  7  1  0  0  0  0 
M  END
> <Name>
DIISOPROPYLAMINE

> <Source>
DSSTox2DMolFile

> <Tox>
1.900

> <CAS>
108-18-9

$$$$

  CDK

  7  6  0  0  0  0  0  0  0  0999 V2000
    2.3037   -1.9950    0.0000 O   0  0  0  0  0  0  0  0  0  0  0  0
    3.4555   -1.3315    0.0000 C   0  0  0  0  0  0  0  0  0  0  0  0
    1.1518   -1.3315    0.0000 C   0  0  0  0  0  0  0  0  0  0  0  0
    3.4555   -0.0000    0.0000 C   0  0  0  0  0  0  0  0  0  0  0  0
    4.6073   -1.9950    0.0000 C   0  0  0  0  0  0  0  0  0  0  0  0
    0.0000   -1.9950    0.0000 C   0  0  0  0  0  0  0  0  0  0  0  0
    1.1518   -0.0000    0.0000 O   0  0  0  0  0  0  0  0  0  0  0  0
  1  2  1  0  0  0  0 
  1  3  1  0  0  0  0 
  2  4  1  0  0  0  0 
  2  5  1  0  0  0  0 
  3  6  1  0  0  0  0 
  3  7  2  0  0  0  0 
M  END
> <Name>
ISOPROPYL ACETATE

> <Source>
DSSTox2DMolFile

> <Tox>
1.781

> <CAS>
108-21-4

$$$$

  CDK

  8  8  0  0  0  0  0  0  0  0999 V2000
    0.0000   -2.6588    0.0000 C   0  0  0  0  0  0  0  0  0  0  0  0
    1.1520   -1.9953    0.0000 C   0  0  0  0  0  0  0  0  0  0  0  0
    1.1520   -0.6635    0.0000 C   0  0  0  0  0  0  0  0  0  0  0  0
    2.3040   -2.6588    0.0000 C   0  0  0  0  0  0  0  0  0  0  0  0
    2.3040   -0.0000    0.0000 C   0  0  0  0  0  0  0  0  0  0  0  0
    3.4560   -1.9953    0.0000 C   0  0  0  0  0  0  0  0  0  0  0  0
    3.4560   -0.6635    0.0000 C   0  0  0  0  0  0  0  0  0  0  0  0
    4.6080   -2.6588    0.0000 C   0  0  0  0  0  0  0  0  0  0  0  0
  1  2  1  0  0  0  0 
  2  3  2  0  0  0  0 
  2  4  1  0  0  0  0 
  3  5  1  0  0  0  0 
  6  4  2  0  0  0  0 
  5  7  2  0  0  0  0 
  7  6  1  0  0  0  0 
  6  8  1  0  0  0  0 
M  END
> <Name>
M-XYLENE

> <Source>
DSSTox2DMolFile

> <Tox>
0.919

> <CAS>
108-38-3

$$$$

  CDK

  8  8  0  0  0  0  0  0  0  0999 V2000
    2.2879   -1.9949    0.0000 C   0  0  0  0  0  0  0  0  0  0  0  0
    1.1319   -1.3326    0.0000 C   0  0  0  0  0  0  0  0  0  0  0  0
    2.2879   -3.3275    0.0000 C   0  0  0  0  0  0  0  0  0  0  0  0
    1.1319   -0.0000    0.0000 O   0  0  0  0  0  0  0  0  0  0  0  0
    0.0000   -1.9949    0.0000 C   0  0  0  0  0  0  0  0  0  0  0  0
    1.1319   -3.9898    0.0000 C   0  0  0  0  0  0  0  0  0  0  0  0
    3.4559   -4.0139    0.0000 C   0  0  0  0  0  0  0  0  0  0  0  0
    0.0000   -3.3275    0.0000 C   0  0  0  0  0  0  0  0  0  0  0  0
  1  2  1  0  0  0  0 
  1  3  2  0  0  0  0 
  2  4  1  0  0  0  0 
  2  5  2  0  0  0  0 
  3  6  1  0  0  0  0 
  3  7  1  0  0  0  0 
  8  5  1  0  0  0  0 
  8  6  2  0  0  0  0 
M  END
> <Name>
M-CRESOL

> <Source>
DSSTox2DMolFile

> <Tox>
-0.959

> <CAS>
108-39-4

$$$$

  CDK

 10 10  0  0  0  0  0  0  0  0999 V2000
    1.2112    0.2398    0.0000 C   0  0  0  0  0  0  0  0  0  0  0  0
    0.0000    0.9361    0.0000 C   0  0  0  0  0  0  0  0  0  0  0  0
    1.2030   -1.1586    0.0000 C   0  0  0  0  0  0  0  0  0  0  0  0
    2.4714    0.9808    0.0000 C   0  0  0  0  0  0  0  0  0  0  0  0
   -1.2113    0.2399    0.0000 C   0  0  0  0  0  0  0  0  0  0  0  0
    0.0001   -1.8526    0.0000 C   0  0  0  0  0  0  0  0  0  0  0  0
    3.6615    0.3835    0.0000 C   0  0  0  0  0  0  0  0  0  0  0  0
   -1.2029   -1.1586    0.0000 C   0  0  0  0  0  0  0  0  0  0  0  0
   -2.4715    0.9807    0.0000 C   0  0  0  0  0  0  0  0  0  0  0  0
   -3.6616    0.3834    0.0000 C   0  0  0  0  0  0  0  0  0  0  0  0
  1  2  1  0  0  0  0 
  1  3  2  0  0  0  0 
  1  4  1  0  0  0  0 
  2  5  2  0  0  0  0 
  6  3  1  0  0  0  0 
  4  7  2  0  0  0  0 
  5  8  1  0  0  0  0 
  5  9  1  0  0  0  0 
  8  6  2  0  0  0  0 
  9 10  2  0  0  0  0 
M  END
> <Name>
M-DIETHENYLBENZENE

> <Source>
DougDB3DMolFile

> <Tox>
-0.237

> <CAS>
108-57-6

$$$$

  CDK

  7  7  0  0  0  0  0  0  0  0999 V2000
    1.3292   -1.1496    0.0000 C   0  0  0  0  0  0  0  0  0  0  0  0
    1.9958   -0.0000    0.0000 C   0  0  0  0  0  0  0  0  0  0  0  0
    1.9958   -2.3032    0.0000 C   0  0  0  0  0  0  0  0  0  0  0  0
    0.0000   -1.1496    0.0000 Br  0  0  0  0  0  0  0  0  0  0  0  0
    3.3250   -0.0000    0.0000 C   0  0  0  0  0  0  0  0  0  0  0  0
    3.3250   -2.3032    0.0000 C   0  0  0  0  0  0  0  0  0  0  0  0
    3.9916   -1.1496    0.0000 C   0  0  0  0  0  0  0  0  0  0  0  0
  1  2  2  0  0  0  0 
  1  3  1  0  0  0  0 
  1  4  1  0  0  0  0 
  2  5  1  0  0  0  0 
  6  3  2  0  0  0  0 
  5  7  2  0  0  0  0 
  7  6  1  0  0  0  0 
M  END
> <Name>
BROMOBENZENE

> <Source>
DSSTox2DMolFile

> <Tox>
0.621

> <CAS>
108-86-1

$$$$

  CDK

  7  7  0  0  0  0  0  0  0  0999 V2000
    0.0000   -1.1496    0.0000 O   0  0  0  0  0  0  0  0  0  0  0  0
    1.3292   -1.1496    0.0000 C   0  0  0  0  0  0  0  0  0  0  0  0
    1.9958   -0.0000    0.0000 C   0  0  0  0  0  0  0  0  0  0  0  0
    1.9958   -2.3032    0.0000 C   0  0  0  0  0  0  0  0  0  0  0  0
    3.3250   -0.0000    0.0000 C   0  0  0  0  0  0  0  0  0  0  0  0
    3.3250   -2.3032    0.0000 C   0  0  0  0  0  0  0  0  0  0  0  0
    3.9916   -1.1496    0.0000 C   0  0  0  0  0  0  0  0  0  0  0  0
  1  2  2  0  0  0  0 
  2  3  1  0  0  0  0 
  2  4  1  0  0  0  0 
  3  5  1  0  0  0  0 
  6  4  1  0  0  0  0 
  5  7  1  0  0  0  0 
  7  6  1  0  0  0  0 
M  END
> <Name>
CYCLOHEXANONE

> <Source>
DSSTox2DMolFile

> <Tox>
0.636

> <CAS>
108-94-1

$$$$

  CDK

  7  7  0  0  0  0  0  0  0  0999 V2000
    3.3250   -2.3032    0.0000 N   0  0  0  0  0  0  0  0  0  0  0  0
    1.9958   -2.3032    0.0000 C   0  0  0  0  0  0  0  0  0  0  0  0
    3.9916   -1.1496    0.0000 C   0  0  0  0  0  0  0  0  0  0  0  0
    1.3292   -1.1496    0.0000 C   0  0  0  0  0  0  0  0  0  0  0  0
    3.3250   -0.0000    0.0000 C   0  0  0  0  0  0  0  0  0  0  0  0
    0.0000   -1.1496    0.0000 C   0  0  0  0  0  0  0  0  0  0  0  0
    1.9958   -0.0000    0.0000 C   0  0  0  0  0  0  0  0  0  0  0  0
  1  2  2  0  0  0  0 
  1  3  1  0  0  0  0 
  2  4  1  0  0  0  0 
  5  3  2  0  0  0  0 
  4  6  1  0  0  0  0 
  4  7  2  0  0  0  0 
  7  5  1  0  0  0  0 
M  END
> <Name>
3-METHYLPYRIDINE

> <Source>
DSSTox2DMolFile

> <Tox>
0.782

> <CAS>
108-99-6

$$$$

  CDK

  5  4  0  0  0  0  0  0  0  0999 V2000
    0.0000   -0.6638    0.0000 Br  0  0  0  0  0  0  0  0  0  0  0  0
    1.1525   -0.0000    0.0000 C   0  0  0  0  0  0  0  0  0  0  0  0
    2.3050   -0.6638    0.0000 C   0  0  0  0  0  0  0  0  0  0  0  0
    3.4575   -0.0000    0.0000 C   0  0  0  0  0  0  0  0  0  0  0  0
    4.6099   -0.6638    0.0000 Br  0  0  0  0  0  0  0  0  0  0  0  0
  1  2  1  0  0  0  0 
  2  3  1  0  0  0  0 
  3  4  1  0  0  0  0 
  4  5  1  0  0  0  0 
M  END
> <Name>
1,3-DIBROMOPROPANE

> <Source>
DSSTox2DMolFile

> <Tox>
0.134

> <CAS>
109-64-8

$$$$

  CDK

  5  4  0  0  0  0  0  0  0  0999 V2000
    0.0000   -0.6638    0.0000 C   0  0  0  0  0  0  0  0  0  0  0  0
    1.1525   -0.0000    0.0000 C   0  0  0  0  0  0  0  0  0  0  0  0
    2.3050   -0.6638    0.0000 C   0  0  0  0  0  0  0  0  0  0  0  0
    3.4575   -0.0000    0.0000 C   0  0  0  0  0  0  0  0  0  0  0  0
    4.6099   -0.6638    0.0000 Cl  0  0  0  0  0  0  0  0  0  0  0  0
  1  2  1  0  0  0  0 
  2  3  1  0  0  0  0 
  3  4  1  0  0  0  0 
  4  5  1  0  0  0  0 
M  END
> <Name>
1-CHLOROBUTANE

> <Source>
DSSTox2DMolFile

> <Tox>
2.004

> <CAS>
109-69-3

$$$$

  CDK

  5  4  0  0  0  0  0  0  0  0999 V2000
   -0.0225    0.0625    0.6570 C   0  0  0  0  0  0  0  0  0  0  0  0
    0.7129   -0.8667   -0.2621 C   0  0  0  0  0  0  0  0  0  0  0  0
   -1.8398    0.0980   -0.0566 Br  0  0  0  0  0  0  0  0  0  0  0  0
    2.1626   -1.0214    0.1343 C   0  0  0  0  0  0  0  0  0  0  0  0
    3.0070    0.5300   -0.0941 Cl  0  0  0  0  0  0  0  0  0  0  0  0
  1  2  1  0  0  0  0 
  1  3  1  0  0  0  0 
  2  4  1  0  0  0  0 
  4  5  1  0  0  0  0 
M  END
> <Name>
1-CHLORO-3-BROMOPROPANE

> <Source>
DougDB3DMolFile

> <Tox>
0.806

> <CAS>
109-70-6

$$$$

  CDK

  5  4  0  0  0  0  0  0  0  0999 V2000
    4.6568   -0.0000    0.0000 C   0  0  0  0  0  0  0  0  0  0  0  0
    3.3250   -0.0000    0.0000 C   0  0  0  0  0  0  0  0  0  0  0  0
    2.6590   -1.1502    0.0000 C   0  0  0  0  0  0  0  0  0  0  0  0
    1.3319   -1.1502    0.0000 C   0  0  0  0  0  0  0  0  0  0  0  0
    0.0000   -1.1502    0.0000 N   0  0  0  0  0  0  0  0  0  0  0  0
  1  2  2  0  0  0  0 
  2  3  1  0  0  0  0 
  3  4  1  0  0  0  0 
  4  5  3  0  0  0  0 
M  END
> <Name>
3-BUTENENITRILE

> <Source>
DSSTox2DMolFile

> <Tox>
1.267

> <CAS>
109-75-1

$$$$

  CDK

  5  4  0  0  0  0  0  0  0  0999 V2000
    3.4694   -0.0000    0.0000 O   0  0  0  0  0  0  0  0  0  0  0  0
    2.3129   -0.6569    0.0000 C   0  0  0  0  0  0  0  0  0  0  0  0
    4.6259   -0.6569    0.0000 C   0  0  0  0  0  0  0  0  0  0  0  0
    1.1565   -0.0000    0.0000 O   0  0  0  0  0  0  0  0  0  0  0  0
    0.0000   -0.6569    0.0000 C   0  0  0  0  0  0  0  0  0  0  0  0
  1  2  1  0  0  0  0 
  1  3  1  0  0  0  0 
  2  4  1  0  0  0  0 
  4  5  1  0  0  0  0 
M  END
> <Name>
DIMETHOXYMETHANE

> <Source>
DSSTox2DMolFile

> <Tox>
2.600

> <CAS>
109-87-5

$$$$

  CDK

  5  4  0  0  0  0  0  0  0  0999 V2000
    1.0685    2.2920    1.5329 C   0  0  0  0  0  0  0  0  0  0  0  0
    1.6260    3.4246    1.9566 C   0  0  0  0  0  0  0  0  0  0  0  0
    1.6781    1.0764    1.3370 O   0  0  0  0  0  0  0  0  0  0  0  0
    3.0015    0.9973    0.9786 C   0  0  0  0  0  0  0  0  0  0  0  0
    3.7227    1.8947    0.3097 C   0  0  0  0  0  0  0  0  0  0  0  0
  1  2  2  0  0  0  0 
  1  3  1  0  0  0  0 
  3  4  1  0  0  0  0 
  4  5  2  0  0  0  0 
M  END
> <Name>
DIVINYL ETHER

> <Source>
NIST3DMolFile

> <Tox>
2.826

> <CAS>
109-93-3

$$$$

  CDK

 10  9  0  0  0  0  0  0  0  0999 V2000
    2.3054   -1.1527    0.0000 O   0  0  0  0  0  0  0  0  0  0  0  0
    3.4581   -1.8155    0.0000 O   0  0  0  0  0  0  0  0  0  0  0  0
    1.1527   -1.8155    0.0000 C   0  0  0  0  0  0  0  0  0  0  0  0
    4.6108   -1.1527    0.0000 C   0  0  0  0  0  0  0  0  0  0  0  0
    0.4899   -0.6628    0.0000 C   0  0  0  0  0  0  0  0  0  0  0  0
    0.0000   -2.4783    0.0000 C   0  0  0  0  0  0  0  0  0  0  0  0
    1.8155   -2.9682    0.0000 C   0  0  0  0  0  0  0  0  0  0  0  0
    3.9480   -0.0000    0.0000 C   0  0  0  0  0  0  0  0  0  0  0  0
    5.2736   -2.3054    0.0000 C   0  0  0  0  0  0  0  0  0  0  0  0
    5.7635   -0.4841    0.0000 C   0  0  0  0  0  0  0  0  0  0  0  0
  1  2  1  0  0  0  0 
  1  3  1  0  0  0  0 
  2  4  1  0  0  0  0 
  3  5  1  0  0  0  0 
  3  6  1  0  0  0  0 
  3  7  1  0  0  0  0 
  4  8  1  0  0  0  0 
  4  9  1  0  0  0  0 
  4 10  1  0  0  0  0 
M  END
> <Name>
T-BUTYL-PEROXIDE

> <Source>
DSSTox2DMolFile

> <Tox>
1.400

> <CAS>
110-05-4

$$$$

  CDK

  8  7  0  0  0  0  0  0  0  0999 V2000
    1.1508   -1.9966    0.0000 C   0  0  0  0  0  0  0  0  0  0  0  0
    1.1508   -3.3258    0.0000 O   0  0  0  0  0  0  0  0  0  0  0  0
    2.3016   -1.3292    0.0000 O   0  0  0  0  0  0  0  0  0  0  0  0
    0.0000   -1.3292    0.0000 C   0  0  0  0  0  0  0  0  0  0  0  0
    3.4524   -1.9966    0.0000 C   0  0  0  0  0  0  0  0  0  0  0  0
    4.6031   -1.3292    0.0000 C   0  0  0  0  0  0  0  0  0  0  0  0
    4.6031   -0.0000    0.0000 C   0  0  0  0  0  0  0  0  0  0  0  0
    5.7539   -1.9966    0.0000 C   0  0  0  0  0  0  0  0  0  0  0  0
  1  2  2  0  0  0  0 
  1  3  1  0  0  0  0 
  1  4  1  0  0  0  0 
  3  5  1  0  0  0  0 
  5  6  1  0  0  0  0 
  6  7  1  0  0  0  0 
  6  8  1  0  0  0  0 
M  END
> <Name>
SEC-BUTYLACETATE

> <Source>
DSSTox2DMolFile

> <Tox>
1.250

> <CAS>
110-19-0

$$$$

  CDK

  6  5  0  0  0  0  0  0  0  0999 V2000
    0.0000   -0.6630    0.0000 Cl  0  0  0  0  0  0  0  0  0  0  0  0
    1.1530   -0.0000    0.0000 C   0  0  0  0  0  0  0  0  0  0  0  0
    2.3060   -0.6630    0.0000 C   0  0  0  0  0  0  0  0  0  0  0  0
    3.4590   -0.0000    0.0000 C   0  0  0  0  0  0  0  0  0  0  0  0
    4.6119   -0.6630    0.0000 C   0  0  0  0  0  0  0  0  0  0  0  0
    5.7649   -0.0000    0.0000 Cl  0  0  0  0  0  0  0  0  0  0  0  0
  1  2  1  0  0  0  0 
  2  3  1  0  0  0  0 
  3  4  2  0  0  0  0 
  4  5  1  0  0  0  0 
  5  6  1  0  0  0  0 
M  END
> <Name>
1,4-DICHLORO-2-BUTENE(TRANS)

> <Source>
DSSTox2DMolFile

> <Tox>
0.535

> <CAS>
110-57-6

$$$$

  CDK

  6  5  0  0  0  0  0  0  0  0999 V2000
   -1.9549    0.3562    0.0002 C   0  0  0  0  0  0  0  0  0  0  0  0
   -2.2539   -0.8153    0.0017 O   0  0  0  0  0  0  0  0  0  0  0  0
   -0.6604    0.7451   -0.0016 O   0  0  0  0  0  0  0  0  0  0  0  0
    0.3690   -0.2480   -0.0030 C   0  0  0  0  0  0  0  0  0  0  0  0
    1.6990    0.4998    0.0032 C   0  0  0  0  0  0  0  0  0  0  0  0
    2.8512   -0.4791   -0.0002 C   0  0  0  0  0  0  0  0  0  0  0  0
  1  2  2  0  0  0  0 
  1  3  1  0  0  0  0 
  3  4  1  0  0  0  0 
  4  5  1  0  0  0  0 
  5  6  1  0  0  0  0 
M  END
> <Name>
PROPYL FORMATE

> <Source>
DougDB3DMolFile

> <Tox>
1.917

> <CAS>
110-74-7

$$$$

  CDK

  6  6  0  0  0  0  0  0  0  0999 V2000
    2.3036   -1.9950    0.0000 C   0  0  0  0  0  0  0  0  0  0  0  0
    1.1518   -2.6600    0.0000 C   0  0  0  0  0  0  0  0  0  0  0  0
    2.3036   -0.6650    0.0000 C   0  0  0  0  0  0  0  0  0  0  0  0
    0.0000   -1.9950    0.0000 C   0  0  0  0  0  0  0  0  0  0  0  0
    1.1518   -0.0000    0.0000 C   0  0  0  0  0  0  0  0  0  0  0  0
    0.0000   -0.6650    0.0000 C   0  0  0  0  0  0  0  0  0  0  0  0
  1  2  1  0  0  0  0 
  1  3  1  0  0  0  0 
  2  4  1  0  0  0  0 
  5  3  1  0  0  0  0 
  4  6  1  0  0  0  0 
  6  5  1  0  0  0  0 
M  END
> <Name>
CYCLOHEXANE

> <Source>
DSSTox2DMolFile

> <Tox>
1.986

> <CAS>
110-82-7

$$$$

  CDK

 11 10  0  0  0  0  0  0  0  0999 V2000
    2.2867   -1.3512    0.0000 C   0  0  0  0  0  0  0  0  0  0  0  0
    3.4612   -2.0061    0.0000 C   0  0  0  0  0  0  0  0  0  0  0  0
    1.1433   -2.0061    0.0000 O   0  0  0  0  0  0  0  0  0  0  0  0
    2.2867   -0.0000    0.0000 O   0  0  0  0  0  0  0  0  0  0  0  0
    4.6046   -1.3512    0.0000 C   0  0  0  0  0  0  0  0  0  0  0  0
    0.0000   -1.3512    0.0000 C   0  0  0  0  0  0  0  0  0  0  0  0
    5.7583   -2.0061    0.0000 C   0  0  0  0  0  0  0  0  0  0  0  0
    6.9328   -1.3512    0.0000 C   0  0  0  0  0  0  0  0  0  0  0  0
    8.0762   -2.0061    0.0000 C   0  0  0  0  0  0  0  0  0  0  0  0
    9.2195   -1.3512    0.0000 C   0  0  0  0  0  0  0  0  0  0  0  0
   10.3941   -2.0061    0.0000 C   0  0  0  0  0  0  0  0  0  0  0  0
  1  2  1  0  0  0  0 
  1  3  1  0  0  0  0 
  1  4  2  0  0  0  0 
  2  5  1  0  0  0  0 
  3  6  1  0  0  0  0 
  5  7  1  0  0  0  0 
  7  8  1  0  0  0  0 
  8  9  1  0  0  0  0 
  9 10  1  0  0  0  0 
 10 11  1  0  0  0  0 
M  END
> <Name>
METHYL OCTANOATE

> <Source>
DSSTox2DMolFile

> <Tox>
-0.268

> <CAS>
111-11-5

$$$$

  CDK

  9  8  0  0  0  0  0  0  0  0999 V2000
    1.9962   -2.3033    0.0000 C   0  0  0  0  0  0  0  0  0  0  0  0
    1.3308   -1.1553    0.0000 C   0  0  0  0  0  0  0  0  0  0  0  0
    0.0000   -1.1553    0.0000 O   0  0  0  0  0  0  0  0  0  0  0  0
    1.9962   -0.0000    0.0000 C   0  0  0  0  0  0  0  0  0  0  0  0
    3.3271   -0.0000    0.0000 C   0  0  0  0  0  0  0  0  0  0  0  0
    3.9852   -1.1553    0.0000 C   0  0  0  0  0  0  0  0  0  0  0  0
    5.3160   -1.1553    0.0000 C   0  0  0  0  0  0  0  0  0  0  0  0
    5.9814   -2.3033    0.0000 C   0  0  0  0  0  0  0  0  0  0  0  0
    7.3122   -2.3033    0.0000 C   0  0  0  0  0  0  0  0  0  0  0  0
  1  2  1  0  0  0  0 
  2  3  2  0  0  0  0 
  2  4  1  0  0  0  0 
  4  5  1  0  0  0  0 
  5  6  1  0  0  0  0 
  6  7  1  0  0  0  0 
  7  8  1  0  0  0  0 
  8  9  1  0  0  0  0 
M  END
> <Name>
2-OCTANONE

> <Source>
DSSTox2DMolFile

> <Tox>
0.130

> <CAS>
111-13-7

$$$$

  CDK

  7  6  0  0  0  0  0  0  0  0999 V2000
    0.0000   -0.6638    0.0000 Br  0  0  0  0  0  0  0  0  0  0  0  0
    1.1548   -0.0000    0.0000 C   0  0  0  0  0  0  0  0  0  0  0  0
    2.3027   -0.6638    0.0000 C   0  0  0  0  0  0  0  0  0  0  0  0
    3.4575   -0.0000    0.0000 C   0  0  0  0  0  0  0  0  0  0  0  0
    4.6122   -0.6638    0.0000 C   0  0  0  0  0  0  0  0  0  0  0  0
    5.7601   -0.0000    0.0000 C   0  0  0  0  0  0  0  0  0  0  0  0
    6.9149   -0.6638    0.0000 C   0  0  0  0  0  0  0  0  0  0  0  0
  1  2  1  0  0  0  0 
  2  3  1  0  0  0  0 
  3  4  1  0  0  0  0 
  4  5  1  0  0  0  0 
  5  6  1  0  0  0  0 
  6  7  1  0  0  0  0 
M  END
> <Name>
1-BROMOHEXANE

> <Source>
DSSTox2DMolFile

> <Tox>
0.591

> <CAS>
111-25-1

$$$$

  CDK

  7  6  0  0  0  0  0  0  0  0999 V2000
   -2.5042    0.4947    0.0006 C   0  0  0  0  0  0  0  0  0  0  0  0
   -1.2534   -0.3813   -0.0026 C   0  0  0  0  0  0  0  0  0  0  0  0
   -3.6233   -0.3618    0.0018 O   0  0  0  0  0  0  0  0  0  0  0  0
    0.0000    0.4781   -0.0007 C   0  0  0  0  0  0  0  0  0  0  0  0
    1.2534   -0.3813   -0.0015 C   0  0  0  0  0  0  0  0  0  0  0  0
    2.5042    0.4947   -0.0005 C   0  0  0  0  0  0  0  0  0  0  0  0
    3.6233   -0.3618    0.0022 O   0  0  0  0  0  0  0  0  0  0  0  0
  1  2  1  0  0  0  0 
  1  3  1  0  0  0  0 
  2  4  1  0  0  0  0 
  4  5  1  0  0  0  0 
  5  6  1  0  0  0  0 
  6  7  1  0  0  0  0 
M  END
> <Name>
1,5-PENTANEDIOL

> <Source>
DougDB3DMolFile

> <Tox>
-2.409

> <CAS>
111-29-5

$$$$

  CDK

  7  6  0  0  0  0  0  0  0  0999 V2000
    3.4575   -0.0000    0.0000 N   0  0  0  0  0  0  0  0  0  0  0  0
    2.3027   -0.6638    0.0000 C   0  0  0  0  0  0  0  0  0  0  0  0
    4.6122   -0.6638    0.0000 C   0  0  0  0  0  0  0  0  0  0  0  0
    1.1548   -0.0000    0.0000 C   0  0  0  0  0  0  0  0  0  0  0  0
    5.7601   -0.0000    0.0000 C   0  0  0  0  0  0  0  0  0  0  0  0
    0.0000   -0.6638    0.0000 N   0  0  0  0  0  0  0  0  0  0  0  0
    6.9149   -0.6638    0.0000 O   0  0  0  0  0  0  0  0  0  0  0  0
  1  2  1  0  0  0  0 
  1  3  1  0  0  0  0 
  2  4  1  0  0  0  0 
  3  5  1  0  0  0  0 
  4  6  1  0  0  0  0 
  5  7  1  0  0  0  0 
M  END
> <Name>
2-(2-AMINOETHYLAMINO)ETHANOL

> <Source>
DSSTox2DMolFile

> <Tox>
-2.087

> <CAS>
111-41-1

$$$$

  CDK

  7  6  0  0  0  0  0  0  0  0999 V2000
    0.0000   -0.6638    0.0000 C   0  0  0  0  0  0  0  0  0  0  0  0
    1.1548   -0.0000    0.0000 C   0  0  0  0  0  0  0  0  0  0  0  0
    2.3027   -0.6638    0.0000 C   0  0  0  0  0  0  0  0  0  0  0  0
    3.4575   -0.0000    0.0000 S   0  0  0  0  0  0  0  0  0  0  0  0
    4.6122   -0.6638    0.0000 C   0  0  0  0  0  0  0  0  0  0  0  0
    5.7601   -0.0000    0.0000 C   0  0  0  0  0  0  0  0  0  0  0  0
    6.9149   -0.6638    0.0000 C   0  0  0  0  0  0  0  0  0  0  0  0
  1  2  1  0  0  0  0 
  2  3  1  0  0  0  0 
  3  4  1  0  0  0  0 
  4  5  1  0  0  0  0 
  5  6  1  0  0  0  0 
  6  7  1  0  0  0  0 
M  END
> <Name>
DI-N-PROPYLSULFIDE

> <Source>
DSSTox2DMolFile

> <Tox>
0.810

> <CAS>
111-47-7

$$$$

  CDK

 10  9  0  0  0  0  0  0  0  0999 V2000
    3.4464   -1.9936    0.0000 C   0  0  0  0  0  0  0  0  0  0  0  0
    4.6087   -1.3318    0.0000 C   0  0  0  0  0  0  0  0  0  0  0  0
    2.2922   -1.3318    0.0000 O   0  0  0  0  0  0  0  0  0  0  0  0
    5.7629   -1.9936    0.0000 O   0  0  0  0  0  0  0  0  0  0  0  0
    1.1542   -1.9936    0.0000 C   0  0  0  0  0  0  0  0  0  0  0  0
    6.9171   -1.3318    0.0000 C   0  0  0  0  0  0  0  0  0  0  0  0
    1.1542   -3.3254    0.0000 O   0  0  0  0  0  0  0  0  0  0  0  0
    0.0000   -1.3318    0.0000 C   0  0  0  0  0  0  0  0  0  0  0  0
    6.9171   -0.0000    0.0000 O   0  0  0  0  0  0  0  0  0  0  0  0
    8.0713   -1.9936    0.0000 C   0  0  0  0  0  0  0  0  0  0  0  0
  1  2  1  0  0  0  0 
  1  3  1  0  0  0  0 
  2  4  1  0  0  0  0 
  3  5  1  0  0  0  0 
  4  6  1  0  0  0  0 
  5  7  2  0  0  0  0 
  5  8  1  0  0  0  0 
  6  9  2  0  0  0  0 
  6 10  1  0  0  0  0 
M  END
> <Name>
ETHYLENE GLYCOL DIACETATE

> <Source>
DSSTox2DMolFile

> <Tox>
-1.111

> <CAS>
111-55-7

$$$$

  CDK

  8  7  0  0  0  0  0  0  0  0999 V2000
    0.0000   -0.6681    0.0000 C   0  0  0  0  0  0  0  0  0  0  0  0
    1.1511   -0.0000    0.0000 C   0  0  0  0  0  0  0  0  0  0  0  0
    2.3023   -0.6681    0.0000 C   0  0  0  0  0  0  0  0  0  0  0  0
    3.4534   -0.0000    0.0000 C   0  0  0  0  0  0  0  0  0  0  0  0
    4.5965   -0.6681    0.0000 C   0  0  0  0  0  0  0  0  0  0  0  0
    5.7477   -0.0000    0.0000 C   0  0  0  0  0  0  0  0  0  0  0  0
    6.8988   -0.6681    0.0000 C   0  0  0  0  0  0  0  0  0  0  0  0
    8.0499   -0.0000    0.0000 C   0  0  0  0  0  0  0  0  0  0  0  0
  1  2  1  0  0  0  0 
  2  3  1  0  0  0  0 
  3  4  1  0  0  0  0 
  4  5  1  0  0  0  0 
  5  6  1  0  0  0  0 
  6  7  1  0  0  0  0 
  7  8  1  0  0  0  0 
M  END
> <Name>
OCTANE

> <Source>
DSSTox2DMolFile

> <Tox>
1.149

> <CAS>
111-65-9

$$$$

  CDK

  8  7  0  0  0  0  0  0  0  0999 V2000
    8.0744   -0.0000    0.0000 C   0  0  0  0  0  0  0  0  0  0  0  0
    6.9197   -0.6621    0.0000 C   0  0  0  0  0  0  0  0  0  0  0  0
    5.7651   -0.0000    0.0000 C   0  0  0  0  0  0  0  0  0  0  0  0
    4.6105   -0.6621    0.0000 C   0  0  0  0  0  0  0  0  0  0  0  0
    3.4639   -0.0000    0.0000 C   0  0  0  0  0  0  0  0  0  0  0  0
    2.3093   -0.6621    0.0000 C   0  0  0  0  0  0  0  0  0  0  0  0
    1.1546   -0.0000    0.0000 C   0  0  0  0  0  0  0  0  0  0  0  0
    0.0000   -0.6621    0.0000 C   0  0  0  0  0  0  0  0  0  0  0  0
  1  2  1  0  0  0  0 
  2  3  1  0  0  0  0 
  3  4  1  0  0  0  0 
  4  5  1  0  0  0  0 
  5  6  1  0  0  0  0 
  6  7  1  0  0  0  0 
  7  8  2  0  0  0  0 
M  END
> <Name>
1-OCTENE

> <Source>
DSSTox2DMolFile

> <Tox>
1.241

> <CAS>
111-66-0

$$$$

  CDK

  8  7  0  0  0  0  0  0  0  0999 V2000
    2.9726    1.1527    1.0826 C   0  0  0  0  0  0  0  0  0  0  0  0
    1.7095    1.9852    1.2639 C   0  0  0  0  0  0  0  0  0  0  0  0
    4.1681    1.7668    1.7204 C   0  0  0  0  0  0  0  0  0  0  0  0
    1.0687    1.8358    2.6364 C   0  0  0  0  0  0  0  0  0  0  0  0
    5.0340    1.0706    2.4594 C   0  0  0  0  0  0  0  0  0  0  0  0
    1.7527    2.6798    3.7000 C   0  0  0  0  0  0  0  0  0  0  0  0
    6.2377    1.6731    3.0733 C   0  0  0  0  0  0  0  0  0  0  0  0
    1.1154    2.4850    5.0569 C   0  0  0  0  0  0  0  0  0  0  0  0
  1  2  1  0  0  0  0 
  1  3  1  0  0  0  0 
  2  4  1  0  0  0  0 
  3  5  2  0  0  0  0 
  4  6  1  0  0  0  0 
  5  7  1  0  0  0  0 
  6  8  1  0  0  0  0 
M  END
> <Name>
2-OCTENE

> <Source>
NIST3DMolFile

> <Tox>
1.212

> <CAS>
111-67-1

$$$$

  CDK

  8  7  0  0  0  0  0  0  0  0999 V2000
    0.0000   -1.9901    0.0000 N   0  0  0  0  0  0  0  0  0  0  0  0
    1.1521   -1.3294    0.0000 C   0  0  0  0  0  0  0  0  0  0  0  0
    2.3043   -0.6607    0.0000 C   0  0  0  0  0  0  0  0  0  0  0  0
    3.4564   -1.3294    0.0000 C   0  0  0  0  0  0  0  0  0  0  0  0
    4.6005   -0.6607    0.0000 C   0  0  0  0  0  0  0  0  0  0  0  0
    5.7526   -1.3294    0.0000 C   0  0  0  0  0  0  0  0  0  0  0  0
    6.9048   -0.6607    0.0000 C   0  0  0  0  0  0  0  0  0  0  0  0
    8.0569   -0.0000    0.0000 N   0  0  0  0  0  0  0  0  0  0  0  0
  1  2  3  0  0  0  0 
  2  3  1  0  0  0  0 
  3  4  1  0  0  0  0 
  4  5  1  0  0  0  0 
  5  6  1  0  0  0  0 
  6  7  1  0  0  0  0 
  7  8  3  0  0  0  0 
M  END
> <Name>
ADIPONITRILE

> <Source>
DSSTox2DMolFile

> <Tox>
-3.168

> <CAS>
111-69-3

$$$$

  CDK

  9  8  0  0  0  0  0  0  0  0999 V2000
    1.1525   -0.0000    0.0000 C   0  0  0  0  0  0  0  0  0  0  0  0
    2.3050   -0.6638    0.0000 C   0  0  0  0  0  0  0  0  0  0  0  0
    0.0000   -0.6638    0.0000 C   0  0  0  0  0  0  0  0  0  0  0  0
    3.4575   -0.0000    0.0000 C   0  0  0  0  0  0  0  0  0  0  0  0
    4.6099   -0.6638    0.0000 C   0  0  0  0  0  0  0  0  0  0  0  0
    5.7624   -0.0000    0.0000 C   0  0  0  0  0  0  0  0  0  0  0  0
    6.9149   -0.6638    0.0000 C   0  0  0  0  0  0  0  0  0  0  0  0
    8.0674   -0.0000    0.0000 C   0  0  0  0  0  0  0  0  0  0  0  0
    9.2199   -0.6638    0.0000 C   0  0  0  0  0  0  0  0  0  0  0  0
  1  2  1  0  0  0  0 
  1  3  1  0  0  0  0 
  2  4  1  0  0  0  0 
  4  5  1  0  0  0  0 
  5  6  1  0  0  0  0 
  6  7  1  0  0  0  0 
  7  8  1  0  0  0  0 
  8  9  1  0  0  0  0 
M  END
> <Name>
N-NONANE

> <Source>
DSSTox2DMolFile

> <Tox>
0.648

> <CAS>
111-84-2

$$$$

  CDK

  9  8  0  0  0  0  0  0  0  0999 V2000
    0.0000   -0.6638    0.0000 C   0  0  0  0  0  0  0  0  0  0  0  0
    1.1525   -0.0000    0.0000 C   0  0  0  0  0  0  0  0  0  0  0  0
    2.3050   -0.6638    0.0000 C   0  0  0  0  0  0  0  0  0  0  0  0
    3.4575   -0.0000    0.0000 C   0  0  0  0  0  0  0  0  0  0  0  0
    4.6099   -0.6638    0.0000 C   0  0  0  0  0  0  0  0  0  0  0  0
    5.7624   -0.0000    0.0000 C   0  0  0  0  0  0  0  0  0  0  0  0
    6.9149   -0.6638    0.0000 C   0  0  0  0  0  0  0  0  0  0  0  0
    8.0674   -0.0000    0.0000 C   0  0  0  0  0  0  0  0  0  0  0  0
    9.2199   -0.6638    0.0000 Cl  0  0  0  0  0  0  0  0  0  0  0  0
  1  2  1  0  0  0  0 
  2  3  1  0  0  0  0 
  3  4  1  0  0  0  0 
  4  5  1  0  0  0  0 
  5  6  1  0  0  0  0 
  6  7  1  0  0  0  0 
  7  8  1  0  0  0  0 
  8  9  1  0  0  0  0 
M  END
> <Name>
1-CHLOROOCTANE

> <Source>
DSSTox2DMolFile

> <Tox>
-0.022

> <CAS>
111-85-3

$$$$

  CDK

  9  8  0  0  0  0  0  0  0  0999 V2000
    1.1261   -0.0000    0.0000 C   0  0  0  0  0  0  0  0  0  0  0  0
    2.2889   -0.6775    0.0000 C   0  0  0  0  0  0  0  0  0  0  0  0
    0.0000   -0.6775    0.0000 S   0  0  0  0  0  0  0  0  0  0  0  0
    3.4151   -0.0000    0.0000 C   0  0  0  0  0  0  0  0  0  0  0  0
    4.5412   -0.6775    0.0000 C   0  0  0  0  0  0  0  0  0  0  0  0
    5.7040   -0.0000    0.0000 C   0  0  0  0  0  0  0  0  0  0  0  0
    6.8667   -0.6775    0.0000 C   0  0  0  0  0  0  0  0  0  0  0  0
    7.9929   -0.0000    0.0000 C   0  0  0  0  0  0  0  0  0  0  0  0
    9.1557   -0.6775    0.0000 C   0  0  0  0  0  0  0  0  0  0  0  0
  1  2  1  0  0  0  0 
  1  3  1  0  0  0  0 
  2  4  1  0  0  0  0 
  4  5  1  0  0  0  0 
  5  6  1  0  0  0  0 
  6  7  1  0  0  0  0 
  7  8  1  0  0  0  0 
  8  9  1  0  0  0  0 
M  END
> <Name>
1-OCTANETHIOL

> <Source>
DSSTox2DMolFile

> <Tox>
-0.372

> <CAS>
111-88-6

$$$$

  CDK

 11 10  0  0  0  0  0  0  0  0999 V2000
    0.0000   -0.6673    0.0000 C   0  0  0  0  0  0  0  0  0  0  0  0
    1.1505   -0.0000    0.0000 C   0  0  0  0  0  0  0  0  0  0  0  0
    2.3010   -0.6673    0.0000 C   0  0  0  0  0  0  0  0  0  0  0  0
    3.4515   -0.0000    0.0000 C   0  0  0  0  0  0  0  0  0  0  0  0
    4.6020   -0.6673    0.0000 C   0  0  0  0  0  0  0  0  0  0  0  0
    5.7525   -0.0000    0.0000 C   0  0  0  0  0  0  0  0  0  0  0  0
    6.9029   -0.6673    0.0000 C   0  0  0  0  0  0  0  0  0  0  0  0
    8.0534   -0.0000    0.0000 C   0  0  0  0  0  0  0  0  0  0  0  0
    9.2039   -0.6673    0.0000 C   0  0  0  0  0  0  0  0  0  0  0  0
   10.3544   -0.0000    0.0000 C   0  0  0  0  0  0  0  0  0  0  0  0
   11.5049   -0.6673    0.0000 O   0  0  0  0  0  0  0  0  0  0  0  0
  1  2  1  0  0  0  0 
  2  3  1  0  0  0  0 
  3  4  1  0  0  0  0 
  4  5  1  0  0  0  0 
  5  6  1  0  0  0  0 
  6  7  1  0  0  0  0 
  7  8  1  0  0  0  0 
  8  9  1  0  0  0  0 
  9 10  1  0  0  0  0 
 10 11  1  0  0  0  0 
M  END
> <Name>
1-DECANOL

> <Source>
DSSTox2DMolFile

> <Tox>
-2.070

> <CAS>
112-30-1

$$$$

  CDK

 11 10  0  0  0  0  0  0  0  0999 V2000
    0.0000   -0.6673    0.0000 C   0  0  0  0  0  0  0  0  0  0  0  0
    1.1505   -0.0000    0.0000 C   0  0  0  0  0  0  0  0  0  0  0  0
    2.3010   -0.6673    0.0000 C   0  0  0  0  0  0  0  0  0  0  0  0
    3.4515   -0.0000    0.0000 C   0  0  0  0  0  0  0  0  0  0  0  0
    4.6020   -0.6673    0.0000 C   0  0  0  0  0  0  0  0  0  0  0  0
    5.7525   -0.0000    0.0000 C   0  0  0  0  0  0  0  0  0  0  0  0
    6.9029   -0.6673    0.0000 C   0  0  0  0  0  0  0  0  0  0  0  0
    8.0534   -0.0000    0.0000 C   0  0  0  0  0  0  0  0  0  0  0  0
    9.2039   -0.6673    0.0000 C   0  0  0  0  0  0  0  0  0  0  0  0
   10.3544   -0.0000    0.0000 C   0  0  0  0  0  0  0  0  0  0  0  0
   11.5049   -0.6673    0.0000 O   0  0  0  0  0  0  0  0  0  0  0  0
  1  2  1  0  0  0  0 
  2  3  1  0  0  0  0 
  3  4  1  0  0  0  0 
  4  5  1  0  0  0  0 
  5  6  1  0  0  0  0 
  6  7  1  0  0  0  0 
  7  8  1  0  0  0  0 
  8  9  1  0  0  0  0 
  9 10  1  0  0  0  0 
 10 11  2  0  0  0  0 
M  END
> <Name>
N-DECANAL

> <Source>
DSSTox2DMolFile

> <Tox>
-0.987

> <CAS>
112-31-2

$$$$

  CDK

 11 10  0  0  0  0  0  0  0  0999 V2000
    0.0000   -0.6673    0.0000 C   0  0  0  0  0  0  0  0  0  0  0  0
    1.1505   -0.0000    0.0000 C   0  0  0  0  0  0  0  0  0  0  0  0
    2.3010   -0.6673    0.0000 C   0  0  0  0  0  0  0  0  0  0  0  0
    3.4515   -0.0000    0.0000 C   0  0  0  0  0  0  0  0  0  0  0  0
    4.6020   -0.6673    0.0000 O   0  0  0  0  0  0  0  0  0  0  0  0
    5.7525   -0.0000    0.0000 C   0  0  0  0  0  0  0  0  0  0  0  0
    6.9029   -0.6673    0.0000 C   0  0  0  0  0  0  0  0  0  0  0  0
    8.0534   -0.0000    0.0000 O   0  0  0  0  0  0  0  0  0  0  0  0
    9.2039   -0.6673    0.0000 C   0  0  0  0  0  0  0  0  0  0  0  0
   10.3544   -0.0000    0.0000 C   0  0  0  0  0  0  0  0  0  0  0  0
   11.5049   -0.6673    0.0000 O   0  0  0  0  0  0  0  0  0  0  0  0
  1  2  1  0  0  0  0 
  2  3  1  0  0  0  0 
  3  4  1  0  0  0  0 
  4  5  1  0  0  0  0 
  5  6  1  0  0  0  0 
  6  7  1  0  0  0  0 
  7  8  1  0  0  0  0 
  8  9  1  0  0  0  0 
  9 10  1  0  0  0  0 
 10 11  1  0  0  0  0 
M  END
> <Name>
DIETHYLENE GLYCOL MONO-N-BUTYL ETHER

> <Source>
DSSTox2DMolFile

> <Tox>
-1.660

> <CAS>
112-34-5

$$$$

  CDK

 13 12  0  0  0  0  0  0  0  0999 V2000
    6.9149   -0.6638    0.0000 N   0  0  0  0  0  0  0  0  0  0  0  0
    5.7670   -0.0000    0.0000 C   0  0  0  0  0  0  0  0  0  0  0  0
    8.0628   -0.0000    0.0000 C   0  0  0  0  0  0  0  0  0  0  0  0
    4.6053   -0.6638    0.0000 C   0  0  0  0  0  0  0  0  0  0  0  0
    9.2245   -0.6638    0.0000 C   0  0  0  0  0  0  0  0  0  0  0  0
    3.4575   -0.0000    0.0000 N   0  0  0  0  0  0  0  0  0  0  0  0
   10.3724   -0.0000    0.0000 N   0  0  0  0  0  0  0  0  0  0  0  0
    2.3096   -0.6638    0.0000 C   0  0  0  0  0  0  0  0  0  0  0  0
   11.5202   -0.6638    0.0000 C   0  0  0  0  0  0  0  0  0  0  0  0
    1.1479   -0.0000    0.0000 C   0  0  0  0  0  0  0  0  0  0  0  0
   12.6819   -0.0000    0.0000 C   0  0  0  0  0  0  0  0  0  0  0  0
    0.0000   -0.6638    0.0000 N   0  0  0  0  0  0  0  0  0  0  0  0
   13.8298   -0.6638    0.0000 N   0  0  0  0  0  0  0  0  0  0  0  0
  1  2  1  0  0  0  0 
  1  3  1  0  0  0  0 
  2  4  1  0  0  0  0 
  3  5  1  0  0  0  0 
  4  6  1  0  0  0  0 
  5  7  1  0  0  0  0 
  6  8  1  0  0  0  0 
  7  9  1  0  0  0  0 
  8 10  1  0  0  0  0 
  9 11  1  0  0  0  0 
 10 12  1  0  0  0  0 
 11 13  1  0  0  0  0 
M  END
> <Name>
TETRAETHYLENEPENTAMINE

> <Source>
DSSTox2DMolFile

> <Tox>
-6.097

> <CAS>
112-57-2

$$$$

  CDK

 13 12  0  0  0  0  0  0  0  0999 V2000
   12.6159   -0.6741    0.0000 C   0  0  0  0  0  0  0  0  0  0  0  0
   11.4603   -0.0000    0.0000 C   0  0  0  0  0  0  0  0  0  0  0  0
   13.7578   -0.0000    0.0000 O   0  0  0  0  0  0  0  0  0  0  0  0
   10.3184   -0.6741    0.0000 O   0  0  0  0  0  0  0  0  0  0  0  0
    9.1627   -0.0000    0.0000 C   0  0  0  0  0  0  0  0  0  0  0  0
    8.0208   -0.6741    0.0000 C   0  0  0  0  0  0  0  0  0  0  0  0
    6.8652   -0.0000    0.0000 O   0  0  0  0  0  0  0  0  0  0  0  0
    5.7233   -0.6741    0.0000 C   0  0  0  0  0  0  0  0  0  0  0  0
    4.5814   -0.0000    0.0000 C   0  0  0  0  0  0  0  0  0  0  0  0
    3.4395   -0.6741    0.0000 C   0  0  0  0  0  0  0  0  0  0  0  0
    2.2976   -0.0000    0.0000 C   0  0  0  0  0  0  0  0  0  0  0  0
    1.1419   -0.6741    0.0000 C   0  0  0  0  0  0  0  0  0  0  0  0
    0.0000   -0.0000    0.0000 C   0  0  0  0  0  0  0  0  0  0  0  0
  1  2  1  0  0  0  0 
  1  3  1  0  0  0  0 
  2  4  1  0  0  0  0 
  4  5  1  0  0  0  0 
  5  6  1  0  0  0  0 
  6  7  1  0  0  0  0 
  7  8  1  0  0  0  0 
  8  9  1  0  0  0  0 
  9 10  1  0  0  0  0 
 10 11  1  0  0  0  0 
 11 12  1  0  0  0  0 
 12 13  1  0  0  0  0 
M  END
> <Name>
ETHANOL, 2- 2-(HEXYLOXY)ETHOXY -

> <Source>
DSSTox2DMolFile

> <Tox>
-2.928

> <CAS>
112-59-4

$$$$

  CDK

 21 20  0  0  0  0  0  0  0  0999 V2000
    0.0000   -8.6529    0.0000 C   0  0  0  0  0  0  0  0  0  0  0  0
    1.1595   -7.9953    0.0000 O   0  0  0  0  0  0  0  0  0  0  0  0
    2.3017   -8.6529    0.0000 C   0  0  0  0  0  0  0  0  0  0  0  0
    2.3017   -9.9855    0.0000 O   0  0  0  0  0  0  0  0  0  0  0  0
    3.4612   -7.9953    0.0000 C   0  0  0  0  0  0  0  0  0  0  0  0
    4.6207   -8.6529    0.0000 C   0  0  0  0  0  0  0  0  0  0  0  0
    5.7629   -7.9953    0.0000 C   0  0  0  0  0  0  0  0  0  0  0  0
    6.9223   -8.6529    0.0000 C   0  0  0  0  0  0  0  0  0  0  0  0
    8.0818   -7.9953    0.0000 C   0  0  0  0  0  0  0  0  0  0  0  0
    9.2240   -8.6529    0.0000 C   0  0  0  0  0  0  0  0  0  0  0  0
   10.3835   -7.9953    0.0000 C   0  0  0  0  0  0  0  0  0  0  0  0
   11.5430   -8.6529    0.0000 C   0  0  0  0  0  0  0  0  0  0  0  0
   12.6852   -7.9953    0.0000 C   0  0  0  0  0  0  0  0  0  0  0  0
   12.6852   -6.6628    0.0000 C   0  0  0  0  0  0  0  0  0  0  0  0
   13.8447   -5.9878    0.0000 C   0  0  0  0  0  0  0  0  0  0  0  0
   13.8447   -4.6553    0.0000 C   0  0  0  0  0  0  0  0  0  0  0  0
   15.0042   -3.9977    0.0000 C   0  0  0  0  0  0  0  0  0  0  0  0
   15.0042   -2.6651    0.0000 C   0  0  0  0  0  0  0  0  0  0  0  0
   16.1464   -1.9902    0.0000 C   0  0  0  0  0  0  0  0  0  0  0  0
   16.1464   -0.6576    0.0000 C   0  0  0  0  0  0  0  0  0  0  0  0
   17.3059   -0.0000    0.0000 C   0  0  0  0  0  0  0  0  0  0  0  0
  1  2  1  0  0  0  0 
  2  3  1  0  0  0  0 
  4  3  2  0  0  0  0 
  3  5  1  0  0  0  0 
  5  6  1  0  0  0  0 
  6  7  1  0  0  0  0 
  7  8  1  0  0  0  0 
  8  9  1  0  0  0  0 
 10  9  1  0  0  0  0 
 10 11  1  0  0  0  0 
 12 11  1  0  0  0  0 
 12 13  2  0  0  0  0 
 13 14  1  0  0  0  0 
 14 15  1  0  0  0  0 
 15 16  1  0  0  0  0 
 16 17  1  0  0  0  0 
 17 18  1  0  0  0  0 
 18 19  1  0  0  0  0 
 19 20  1  0  0  0  0 
 20 21  1  0  0  0  0 
M  END
> <Name>
METHYL OLEATE

> <Source>
DSSTox2DMolFile

> <Tox>
-5.201

> <CAS>
112-62-9

$$$$

  CDK

 14 13  0  0  0  0  0  0  0  0999 V2000
    0.0000   -0.6604    0.0000 C   0  0  0  0  0  0  0  0  0  0  0  0
    1.1556   -0.0000    0.0000 C   0  0  0  0  0  0  0  0  0  0  0  0
    2.3113   -0.6604    0.0000 C   0  0  0  0  0  0  0  0  0  0  0  0
    3.4669   -0.0000    0.0000 C   0  0  0  0  0  0  0  0  0  0  0  0
    4.6225   -0.6604    0.0000 C   0  0  0  0  0  0  0  0  0  0  0  0
    5.7782   -0.0000    0.0000 C   0  0  0  0  0  0  0  0  0  0  0  0
    6.9338   -0.6604    0.0000 C   0  0  0  0  0  0  0  0  0  0  0  0
    8.0744   -0.0000    0.0000 C   0  0  0  0  0  0  0  0  0  0  0  0
    9.2301   -0.6604    0.0000 C   0  0  0  0  0  0  0  0  0  0  0  0
   10.3857   -0.0000    0.0000 C   0  0  0  0  0  0  0  0  0  0  0  0
   11.5413   -0.6604    0.0000 C   0  0  0  0  0  0  0  0  0  0  0  0
   12.6969   -0.0000    0.0000 C   0  0  0  0  0  0  0  0  0  0  0  0
   13.8526   -0.6604    0.0000 C   0  0  0  0  0  0  0  0  0  0  0  0
   15.0082   -0.0000    0.0000 O   0  0  0  0  0  0  0  0  0  0  0  0
  1  2  1  0  0  0  0 
  2  3  1  0  0  0  0 
  3  4  1  0  0  0  0 
  4  5  1  0  0  0  0 
  5  6  1  0  0  0  0 
  6  7  1  0  0  0  0 
  7  8  1  0  0  0  0 
  8  9  1  0  0  0  0 
  9 10  1  0  0  0  0 
 10 11  1  0  0  0  0 
 11 12  1  0  0  0  0 
 12 13  1  0  0  0  0 
 13 14  1  0  0  0  0 
M  END
> <Name>
1-TRIDECANOL

> <Source>
DSSTox2DMolFile

> <Tox>
-3.361

> <CAS>
112-70-9

$$$$

  CDK

 15 14  0  0  0  0  0  0  0  0999 V2000
   11.5302   -0.6621    0.0000 O   0  0  0  0  0  0  0  0  0  0  0  0
   10.3836   -0.0000    0.0000 C   0  0  0  0  0  0  0  0  0  0  0  0
   12.6929   -0.0000    0.0000 C   0  0  0  0  0  0  0  0  0  0  0  0
    9.2209   -0.6621    0.0000 C   0  0  0  0  0  0  0  0  0  0  0  0
   13.8394   -0.6621    0.0000 C   0  0  0  0  0  0  0  0  0  0  0  0
    8.0743   -0.0000    0.0000 O   0  0  0  0  0  0  0  0  0  0  0  0
   15.0021   -0.0000    0.0000 C   0  0  0  0  0  0  0  0  0  0  0  0
    6.9278   -0.6621    0.0000 C   0  0  0  0  0  0  0  0  0  0  0  0
   16.1487   -0.6621    0.0000 C   0  0  0  0  0  0  0  0  0  0  0  0
    5.7651   -0.0000    0.0000 C   0  0  0  0  0  0  0  0  0  0  0  0
    4.6185   -0.6621    0.0000 O   0  0  0  0  0  0  0  0  0  0  0  0
    3.4558   -0.0000    0.0000 C   0  0  0  0  0  0  0  0  0  0  0  0
    2.3093   -0.6621    0.0000 C   0  0  0  0  0  0  0  0  0  0  0  0
    1.1466   -0.0000    0.0000 C   0  0  0  0  0  0  0  0  0  0  0  0
    0.0000   -0.6621    0.0000 C   0  0  0  0  0  0  0  0  0  0  0  0
  1  2  1  0  0  0  0 
  1  3  1  0  0  0  0 
  2  4  1  0  0  0  0 
  3  5  1  0  0  0  0 
  4  6  1  0  0  0  0 
  5  7  1  0  0  0  0 
  6  8  1  0  0  0  0 
  7  9  1  0  0  0  0 
  8 10  1  0  0  0  0 
 10 11  1  0  0  0  0 
 11 12  1  0  0  0  0 
 12 13  1  0  0  0  0 
 13 14  1  0  0  0  0 
 14 15  1  0  0  0  0 
M  END
> <Name>
DIETHYLENE GLYCOL DIBUTYL ETHER

> <Source>
DSSTox2DMolFile

> <Tox>
-1.583

> <CAS>
112-73-2

$$$$

  CDK

 20 22  0  0  0  0  0  0  0  0999 V2000
    4.1001   -4.4894    0.0000 O   0  0  0  0  0  0  0  0  0  0  0  0
    3.7191   -3.2718    0.0000 C   0  0  0  0  0  0  0  0  0  0  0  0
    2.5015   -2.8908    0.0000 C   0  0  0  0  0  0  0  0  0  0  0  0
    4.4563   -2.2447    0.0000 N   0  0  0  0  0  0  0  0  0  0  0  0
    2.5015   -1.6152    0.0000 C   0  0  0  0  0  0  0  0  0  0  0  0
    1.3998   -2.2281    0.0000 C   0  0  0  0  0  0  0  0  0  0  0  0
    3.7191   -1.2176    0.0000 C   0  0  0  0  0  0  0  0  0  0  0  0
    5.7319   -2.2447    0.0000 C   0  0  0  0  0  0  0  0  0  0  0  0
    1.3998   -0.9691    0.0000 C   0  0  0  0  0  0  0  0  0  0  0  0
    0.9360   -0.0497    0.0000 C   0  0  0  0  0  0  0  0  0  0  0  0
    0.0000   -2.7997    0.0000 C   0  0  0  0  0  0  0  0  0  0  0  0
    4.1001   -0.0000    0.0000 O   0  0  0  0  0  0  0  0  0  0  0  0
    6.3780   -3.3546    0.0000 C   0  0  0  0  0  0  0  0  0  0  0  0
    0.0000   -1.5241    0.0000 C   0  0  0  0  0  0  0  0  0  0  0  0
    5.7319   -4.4563    0.0000 C   0  0  0  0  0  0  0  0  0  0  0  0
    7.6535   -3.3546    0.0000 C   0  0  0  0  0  0  0  0  0  0  0  0
    6.3780   -5.5662    0.0000 C   0  0  0  0  0  0  0  0  0  0  0  0
    8.2831   -2.2447    0.0000 C   0  0  0  0  0  0  0  0  0  0  0  0
    5.7319   -6.6679    0.0000 C   0  0  0  0  0  0  0  0  0  0  0  0
    6.3780   -7.7778    0.0000 C   0  0  0  0  0  0  0  0  0  0  0  0
  1  2  2  0  0  0  0 
  2  3  1  0  0  0  0 
  2  4  1  0  0  0  0 
  3  5  1  0  0  0  0 
  3  6  1  0  0  0  0 
  7  4  1  0  0  0  0 
  4  8  1  0  0  0  0 
  5  9  1  0  0  0  0 
  5  7  1  0  0  0  0 
 10  6  1  0  0  0  0 
  6 11  1  0  0  0  0 
  7 12  2  0  0  0  0 
  8 13  1  0  0  0  0 
  9 10  1  0  0  0  0 
  9 14  1  0  0  0  0 
 11 14  2  0  0  0  0 
 13 15  1  0  0  0  0 
 13 16  1  0  0  0  0 
 15 17  1  0  0  0  0 
 16 18  1  0  0  0  0 
 17 19  1  0  0  0  0 
 19 20  1  0  0  0  0 
M  END
> <Name>
MGK 264

> <Source>
DSSTox2DMolFile

> <Tox>
-4.745

> <CAS>
113-48-4

$$$$

  CDK

  7  6  0  0  0  0  0  0  0  0999 V2000
    1.8986    1.4219    1.9541 C   0  0  0  0  0  0  0  0  0  0  0  0
    3.3767    1.7675    2.2684 C   0  0  0  0  0  0  0  0  0  0  0  0
    1.0317    1.4704    3.2148 C   0  0  0  0  0  0  0  0  0  0  0  0
    1.3894    2.4307    0.9141 C   0  0  0  0  0  0  0  0  0  0  0  0
    1.7698    0.0963    1.4641 O   0  0  0  0  0  0  0  0  0  0  0  0
    4.2827    1.1792    1.7090 O   0  0  0  0  0  0  0  0  0  0  0  0
    3.6446    2.8673    3.2576 C   0  0  0  0  0  0  0  0  0  0  0  0
  1  2  1  0  0  0  0 
  1  3  1  0  0  0  0 
  1  4  1  0  0  0  0 
  1  5  1  0  0  0  0 
  2  6  2  0  0  0  0 
  2  7  1  0  0  0  0 
M  END
> <Name>
3-HYDROXY-3-METHYL-2-BUTANONE

> <Source>
NIST3DMolFile

> <Tox>
0.792

> <CAS>
115-22-0

$$$$

  CDK

 23 25  0  0  0  0  0  0  0  0999 V2000
    1.9924   -6.9547    0.0000 C   0  0  0  0  0  0  0  0  0  0  0  0
    0.6610   -6.9547    0.0000 C   0  0  0  0  0  0  0  0  0  0  0  0
    2.6627   -5.8002    0.0000 C   0  0  0  0  0  0  0  0  0  0  0  0
    0.0000   -5.8002    0.0000 C   0  0  0  0  0  0  0  0  0  0  0  0
    1.9924   -4.6551    0.0000 C   0  0  0  0  0  0  0  0  0  0  0  0
    3.9940   -5.8002    0.0000 O   0  0  0  0  0  0  0  0  0  0  0  0
    0.6610   -4.6551    0.0000 C   0  0  0  0  0  0  0  0  0  0  0  0
    4.6551   -4.6551    0.0000 P   0  0  0  0  0  0  0  0  0  0  0  0
    5.8095   -5.3161    0.0000 O   0  0  0  0  0  0  0  0  0  0  0  0
    3.5006   -3.9847    0.0000 O   0  0  0  0  0  0  0  0  0  0  0  0
    5.3161   -3.5006    0.0000 O   0  0  0  0  0  0  0  0  0  0  0  0
    3.5006   -2.6534    0.0000 C   0  0  0  0  0  0  0  0  0  0  0  0
    6.6474   -3.5006    0.0000 C   0  0  0  0  0  0  0  0  0  0  0  0
    2.3555   -1.9924    0.0000 C   0  0  0  0  0  0  0  0  0  0  0  0
    4.6551   -1.9924    0.0000 C   0  0  0  0  0  0  0  0  0  0  0  0
    7.3178   -2.3462    0.0000 C   0  0  0  0  0  0  0  0  0  0  0  0
    7.3178   -4.6551    0.0000 C   0  0  0  0  0  0  0  0  0  0  0  0
    2.3555   -0.6610    0.0000 C   0  0  0  0  0  0  0  0  0  0  0  0
    4.6551   -0.6610    0.0000 C   0  0  0  0  0  0  0  0  0  0  0  0
    8.6491   -2.3462    0.0000 C   0  0  0  0  0  0  0  0  0  0  0  0
    8.6491   -4.6551    0.0000 C   0  0  0  0  0  0  0  0  0  0  0  0
    3.5006   -0.0000    0.0000 C   0  0  0  0  0  0  0  0  0  0  0  0
    9.3101   -3.5006    0.0000 C   0  0  0  0  0  0  0  0  0  0  0  0
  1  2  2  0  0  0  0 
  1  3  1  0  0  0  0 
  2  4  1  0  0  0  0 
  5  3  2  0  0  0  0 
  3  6  1  0  0  0  0 
  4  7  2  0  0  0  0 
  7  5  1  0  0  0  0 
  6  8  1  0  0  0  0 
  8  9  2  0  0  0  0 
  8 10  1  0  0  0  0 
  8 11  1  0  0  0  0 
 10 12  1  0  0  0  0 
 11 13  1  0  0  0  0 
 12 14  2  0  0  0  0 
 12 15  1  0  0  0  0 
 13 16  2  0  0  0  0 
 13 17  1  0  0  0  0 
 14 18  1  0  0  0  0 
 19 15  2  0  0  0  0 
 16 20  1  0  0  0  0 
 21 17  2  0  0  0  0 
 18 22  2  0  0  0  0 
 22 19  1  0  0  0  0 
 20 23  2  0  0  0  0 
 23 21  1  0  0  0  0 
M  END
> <Name>
TRIPHENYLPHOSPHATE

> <Source>
DSSTox2DMolFile

> <Tox>
-5.202

> <CAS>
115-86-6

$$$$

  CDK

 18 18  0  0  0  0  0  0  0  0999 V2000
    0.6613   -1.5089    0.0000 S   0  0  0  0  0  0  0  0  0  0  0  0
    0.0000   -0.3539    0.0000 O   0  0  0  0  0  0  0  0  0  0  0  0
    0.0000   -2.6545    0.0000 C   0  0  0  0  0  0  0  0  0  0  0  0
    1.9932   -1.5089    0.0000 C   0  0  0  0  0  0  0  0  0  0  0  0
    2.6638   -0.3539    0.0000 C   0  0  0  0  0  0  0  0  0  0  0  0
    2.6638   -2.6545    0.0000 C   0  0  0  0  0  0  0  0  0  0  0  0
    3.9957   -0.3539    0.0000 C   0  0  0  0  0  0  0  0  0  0  0  0
    3.9957   -2.6545    0.0000 C   0  0  0  0  0  0  0  0  0  0  0  0
    4.6570   -1.5089    0.0000 C   0  0  0  0  0  0  0  0  0  0  0  0
    5.9889   -1.5089    0.0000 O   0  0  0  0  0  0  0  0  0  0  0  0
    6.6502   -2.6545    0.0000 P   0  0  0  0  0  0  0  0  0  0  0  0
    5.5046   -3.3251    0.0000 S   0  0  0  0  0  0  0  0  0  0  0  0
    7.8051   -1.9932    0.0000 O   0  0  0  0  0  0  0  0  0  0  0  0
    7.3208   -3.8094    0.0000 O   0  0  0  0  0  0  0  0  0  0  0  0
    7.8051   -0.6613    0.0000 C   0  0  0  0  0  0  0  0  0  0  0  0
    8.6527   -3.8094    0.0000 C   0  0  0  0  0  0  0  0  0  0  0  0
    8.9601   -0.0000    0.0000 C   0  0  0  0  0  0  0  0  0  0  0  0
    9.3140   -2.6545    0.0000 C   0  0  0  0  0  0  0  0  0  0  0  0
  1  2  2  0  0  0  0 
  1  3  1  0  0  0  0 
  1  4  1  0  0  0  0 
  4  5  2  0  0  0  0 
  4  6  1  0  0  0  0 
  5  7  1  0  0  0  0 
  6  8  2  0  0  0  0 
  7  9  2  0  0  0  0 
  9  8  1  0  0  0  0 
  9 10  1  0  0  0  0 
 10 11  1  0  0  0  0 
 11 12  2  0  0  0  0 
 11 13  1  0  0  0  0 
 11 14  1  0  0  0  0 
 13 15  1  0  0  0  0 
 14 16  1  0  0  0  0 
 15 17  1  0  0  0  0 
 16 18  1  0  0  0  0 
M  END
> <Name>
FENSULFOTHION

> <Source>
DSSTox2DMolFile

> <Tox>
-4.301

> <CAS>
115-90-2

$$$$

  CDK

 14 13  0  0  0  0  0  0  0  0999 V2000
    1.5045   -4.2865    0.0000 C   0  0  0  0  0  0  0  0  0  0  0  0
    1.5045   -2.9586    0.0000 C   0  0  0  0  0  0  0  0  0  0  0  0
    2.6560   -2.3030    0.0000 C   0  0  0  0  0  0  0  0  0  0  0  0
    3.7991   -1.6306    0.0000 C   0  0  0  0  0  0  0  0  0  0  0  0
    2.0004   -1.1515    0.0000 O   0  0  0  0  0  0  0  0  0  0  0  0
    3.3200   -3.4545    0.0000 C   0  0  0  0  0  0  0  0  0  0  0  0
    4.9505   -2.3030    0.0000 C   0  0  0  0  0  0  0  0  0  0  0  0
    0.6724   -1.1515    0.0000 C   0  0  0  0  0  0  0  0  0  0  0  0
    6.1020   -1.6306    0.0000 C   0  0  0  0  0  0  0  0  0  0  0  0
    0.0000   -2.3030    0.0000 O   0  0  0  0  0  0  0  0  0  0  0  0
    0.0000   -0.0000    0.0000 C   0  0  0  0  0  0  0  0  0  0  0  0
    7.2535   -2.3030    0.0000 C   0  0  0  0  0  0  0  0  0  0  0  0
    7.2535   -3.6310    0.0000 C   0  0  0  0  0  0  0  0  0  0  0  0
    8.4050   -1.6306    0.0000 C   0  0  0  0  0  0  0  0  0  0  0  0
  1  2  2  0  0  0  0 
  2  3  1  0  0  0  0 
  3  4  1  0  0  0  0 
  3  5  1  0  0  0  0 
  3  6  1  0  0  0  0 
  4  7  1  0  0  0  0 
  5  8  1  0  0  0  0 
  7  9  1  0  0  0  0 
  8 10  2  0  0  0  0 
  8 11  1  0  0  0  0 
  9 12  2  0  0  0  0 
 12 13  1  0  0  0  0 
 12 14  1  0  0  0  0 
M  END
> <Name>
LINALYL ACETATE

> <Source>
DSSTox2DMolFile

> <Tox>
-0.955

> <CAS>
115-95-7

$$$$

  CDK

 14 13  0  0  0  0  0  0  0  0999 V2000
    3.9465   -2.8373    0.0000 O   0  0  0  0  0  0  0  0  0  0  0  0
    4.6085   -3.9895    0.0000 P   0  0  0  0  0  0  0  0  0  0  0  0
    5.7607   -3.3274    0.0000 O   0  0  0  0  0  0  0  0  0  0  0  0
    5.2706   -5.1416    0.0000 O   0  0  0  0  0  0  0  0  0  0  0  0
    3.4564   -4.6515    0.0000 O   0  0  0  0  0  0  0  0  0  0  0  0
    5.7607   -1.9947    0.0000 C   0  0  0  0  0  0  0  0  0  0  0  0
    6.6033   -5.1416    0.0000 C   0  0  0  0  0  0  0  0  0  0  0  0
    2.3043   -3.9895    0.0000 C   0  0  0  0  0  0  0  0  0  0  0  0
    4.6085   -1.3327    0.0000 C   0  0  0  0  0  0  0  0  0  0  0  0
    7.2653   -3.9895    0.0000 C   0  0  0  0  0  0  0  0  0  0  0  0
    1.1521   -4.6515    0.0000 C   0  0  0  0  0  0  0  0  0  0  0  0
    4.6085   -0.0000    0.0000 Cl  0  0  0  0  0  0  0  0  0  0  0  0
    8.5980   -3.9895    0.0000 Cl  0  0  0  0  0  0  0  0  0  0  0  0
    0.0000   -3.9895    0.0000 Cl  0  0  0  0  0  0  0  0  0  0  0  0
  1  2  2  0  0  0  0 
  2  3  1  0  0  0  0 
  2  4  1  0  0  0  0 
  2  5  1  0  0  0  0 
  3  6  1  0  0  0  0 
  4  7  1  0  0  0  0 
  5  8  1  0  0  0  0 
  6  9  1  0  0  0  0 
  7 10  1  0  0  0  0 
  8 11  1  0  0  0  0 
  9 12  1  0  0  0  0 
 10 13  1  0  0  0  0 
 11 14  1  0  0  0  0 
M  END
> <Name>
TRI-2-CHLOROETHYL PHOSPHATE

> <Source>
DSSTox2DMolFile

> <Tox>
-1.213

> <CAS>
115-96-8

$$$$

  CDK

  6  5  0  0  0  0  0  0  0  0999 V2000
    2.6600   -2.3036    0.0000 F   0  0  0  0  0  0  0  0  0  0  0  0
    1.9870   -1.1598    0.0000 C   0  0  0  0  0  0  0  0  0  0  0  0
    0.6730   -1.1598    0.0000 C   0  0  0  0  0  0  0  0  0  0  0  0
    2.6600   -0.0000    0.0000 F   0  0  0  0  0  0  0  0  0  0  0  0
    0.0000   -2.3036    0.0000 F   0  0  0  0  0  0  0  0  0  0  0  0
    0.0000   -0.0000    0.0000 F   0  0  0  0  0  0  0  0  0  0  0  0
  1  2  1  0  0  0  0 
  3  2  2  0  0  0  0 
  2  4  1  0  0  0  0 
  5  3  1  0  0  0  0 
  3  6  1  0  0  0  0 
M  END
> <Name>
TETRAFLUOROETHYLENE

> <Source>
DSSTox2DMolFile

> <Tox>
4.389

> <CAS>
116-14-3

$$$$

  CDK

  7  6  0  0  0  0  0  0  0  0999 V2000
    2.0014   -1.1540    0.0000 C   0  0  0  0  0  0  0  0  0  0  0  0
    1.3297   -2.2908    0.0000 C   0  0  0  0  0  0  0  0  0  0  0  0
    1.3297   -0.0000    0.0000 O   0  0  0  0  0  0  0  0  0  0  0  0
    3.3311   -1.1540    0.0000 O   0  0  0  0  0  0  0  0  0  0  0  0
    2.0014   -3.4448    0.0000 C   0  0  0  0  0  0  0  0  0  0  0  0
    0.0000   -2.2908    0.0000 C   0  0  0  0  0  0  0  0  0  0  0  0
    3.3311   -3.4448    0.0000 C   0  0  0  0  0  0  0  0  0  0  0  0
  1  2  1  0  0  0  0 
  1  3  1  0  0  0  0 
  1  4  2  0  0  0  0 
  2  5  1  0  0  0  0 
  2  6  1  0  0  0  0 
  5  7  1  0  0  0  0 
M  END
> <Name>
BUTANOIC ACID, 2-METHYL-

> <Source>
DSSTox2DMolFile

> <Tox>
-0.309

> <CAS>
116-53-0

$$$$

  CDK

 18 20  0  0  0  0  0  0  0  0999 V2000
    6.0590    1.7213    3.7867 O   0  0  0  0  0  0  0  0  0  0  0  0
    6.3245    0.5016    3.2382 C   0  0  0  0  0  0  0  0  0  0  0  0
    5.4084   -0.1833    2.4309 C   0  0  0  0  0  0  0  0  0  0  0  0
    7.5709   -0.0626    3.5116 C   0  0  0  0  0  0  0  0  0  0  0  0
    5.7441   -1.4308    1.9006 C   0  0  0  0  0  0  0  0  0  0  0  0
    4.0911    0.4217    2.1468 C   0  0  0  0  0  0  0  0  0  0  0  0
    7.9059   -1.3073    2.9823 C   0  0  0  0  0  0  0  0  0  0  0  0
    4.7867   -2.1648    1.0481 C   0  0  0  0  0  0  0  0  0  0  0  0
    6.9960   -1.9932    2.1774 C   0  0  0  0  0  0  0  0  0  0  0  0
    3.7723    1.5135    2.6006 O   0  0  0  0  0  0  0  0  0  0  0  0
    3.1338   -0.3123    1.2942 C   0  0  0  0  0  0  0  0  0  0  0  0
    5.0447   -3.2612    0.5676 O   0  0  0  0  0  0  0  0  0  0  0  0
    3.4694   -1.5599    0.7642 C   0  0  0  0  0  0  0  0  0  0  0  0
    7.4067   -3.2499    1.6768 N   0  0  0  0  0  0  0  0  0  0  0  0
    1.8817    0.2499    1.0178 C   0  0  0  0  0  0  0  0  0  0  0  0
    2.5529   -2.2453   -0.0422 C   0  0  0  0  0  0  0  0  0  0  0  0
    0.9713   -0.4366    0.2139 C   0  0  0  0  0  0  0  0  0  0  0  0
    1.3062   -1.6816   -0.3150 C   0  0  0  0  0  0  0  0  0  0  0  0
  1  2  1  0  0  0  0 
  3  2  2  0  0  0  0 
  2  4  1  0  0  0  0 
  5  3  1  0  0  0  0 
  3  6  1  0  0  0  0 
  7  4  2  0  0  0  0 
  5  8  1  0  0  0  0 
  5  9  2  0  0  0  0 
 10  6  2  0  0  0  0 
 11  6  1  0  0  0  0 
  9  7  1  0  0  0  0 
 12  8  2  0  0  0  0 
 13  8  1  0  0  0  0 
 14  9  1  0  0  0  0 
 13 11  1  0  0  0  0 
 11 15  2  0  0  0  0 
 13 16  2  0  0  0  0 
 15 17  1  0  0  0  0 
 16 18  1  0  0  0  0 
 18 17  2  0  0  0  0 
M  END
> <Name>
1-AMINO-4-HYDROXYANTHRAQUINONE

> <Source>
Chemidplus3DMolFile

> <Tox>
-8.523

> <CAS>
116-85-8

$$$$

  CDK

 12 12  0  0  0  0  0  0  0  0999 V2000
    1.9947   -3.4576    0.0000 C   0  0  0  0  0  0  0  0  0  0  0  0
    0.6649   -3.4576    0.0000 C   0  0  0  0  0  0  0  0  0  0  0  0
    2.6597   -2.3073    0.0000 C   0  0  0  0  0  0  0  0  0  0  0  0
    0.0000   -2.3073    0.0000 C   0  0  0  0  0  0  0  0  0  0  0  0
    1.9947   -1.1569    0.0000 C   0  0  0  0  0  0  0  0  0  0  0  0
    3.9895   -2.3073    0.0000 C   0  0  0  0  0  0  0  0  0  0  0  0
    0.6649   -1.1569    0.0000 C   0  0  0  0  0  0  0  0  0  0  0  0
    2.6597   -0.0000    0.0000 O   0  0  0  0  0  0  0  0  0  0  0  0
    4.6544   -3.4576    0.0000 O   0  0  0  0  0  0  0  0  0  0  0  0
    4.6544   -1.1569    0.0000 O   0  0  0  0  0  0  0  0  0  0  0  0
    5.9842   -1.1569    0.0000 C   0  0  0  0  0  0  0  0  0  0  0  0
    6.6491   -0.0000    0.0000 C   0  0  0  0  0  0  0  0  0  0  0  0
  1  2  2  0  0  0  0 
  1  3  1  0  0  0  0 
  2  4  1  0  0  0  0 
  5  3  2  0  0  0  0 
  3  6  1  0  0  0  0 
  4  7  2  0  0  0  0 
  7  5  1  0  0  0  0 
  5  8  1  0  0  0  0 
  6  9  2  0  0  0  0 
  6 10  1  0  0  0  0 
 10 11  1  0  0  0  0 
 11 12  1  0  0  0  0 
M  END
> <Name>
ETHYL 2-HYDROXYBENZOATE

> <Source>
DSSTox2DMolFile

> <Tox>
-1.073

> <CAS>
118-61-6

$$$$

  CDK

 10 10  0  0  0  0  0  0  0  0999 V2000
    0.0000   -1.1499    0.0000 O   0  0  0  0  0  0  0  0  0  0  0  0
    0.6657   -2.3044    0.0000 C   0  0  0  0  0  0  0  0  0  0  0  0
    0.0000   -3.4542    0.0000 O   0  0  0  0  0  0  0  0  0  0  0  0
    1.9971   -2.3044    0.0000 C   0  0  0  0  0  0  0  0  0  0  0  0
    2.6582   -1.1499    0.0000 C   0  0  0  0  0  0  0  0  0  0  0  0
    2.6582   -3.4542    0.0000 C   0  0  0  0  0  0  0  0  0  0  0  0
    3.9896   -1.1499    0.0000 C   0  0  0  0  0  0  0  0  0  0  0  0
    1.9971   -0.0000    0.0000 C   0  0  0  0  0  0  0  0  0  0  0  0
    3.9896   -3.4542    0.0000 C   0  0  0  0  0  0  0  0  0  0  0  0
    4.6553   -2.3044    0.0000 C   0  0  0  0  0  0  0  0  0  0  0  0
  1  2  2  0  0  0  0 
  2  3  1  0  0  0  0 
  2  4  1  0  0  0  0 
  4  5  2  0  0  0  0 
  4  6  1  0  0  0  0 
  5  7  1  0  0  0  0 
  5  8  1  0  0  0  0 
  9  6  2  0  0  0  0 
  7 10  2  0  0  0  0 
 10  9  1  0  0  0  0 
M  END
> <Name>
O-TOLUIC ACID

> <Source>
DSSTox2DMolFile

> <Tox>
-3.182

> <CAS>
118-90-1

$$$$

  CDK

 16 16  0  0  0  0  0  0  0  0999 V2000
    4.6045   -2.0089    0.0000 C   0  0  0  0  0  0  0  0  0  0  0  0
    5.7643   -1.3254    0.0000 N   0  0  0  0  0  0  0  0  0  0  0  0
    3.4517   -1.3393    0.0000 C   0  0  0  0  0  0  0  0  0  0  0  0
    4.6045   -3.3343    0.0000 C   0  0  0  0  0  0  0  0  0  0  0  0
    6.9034   -1.9951    0.0000 O   0  0  0  0  0  0  0  0  0  0  0  0
    5.7643   -0.0000    0.0000 O   0  0  0  0  0  0  0  0  0  0  0  0
    2.2988   -2.0089    0.0000 C   0  0  0  0  0  0  0  0  0  0  0  0
    3.4517   -0.0138    0.0000 C   0  0  0  0  0  0  0  0  0  0  0  0
    3.4517   -3.9970    0.0000 C   0  0  0  0  0  0  0  0  0  0  0  0
    1.1391   -1.3254    0.0000 N   0  0  0  0  0  0  0  0  0  0  0  0
    2.2988   -3.3343    0.0000 C   0  0  0  0  0  0  0  0  0  0  0  0
    3.4517   -5.3225    0.0000 N   0  0  0  0  0  0  0  0  0  0  0  0
    1.1391   -0.0000    0.0000 O   0  0  0  0  0  0  0  0  0  0  0  0
    0.0000   -1.9951    0.0000 O   0  0  0  0  0  0  0  0  0  0  0  0
    2.2988   -5.9921    0.0000 O   0  0  0  0  0  0  0  0  0  0  0  0
    4.6045   -5.9921    0.0000 O   0  0  0  0  0  0  0  0  0  0  0  0
  1  2  1  0  0  0  0 
  1  3  1  0  0  0  0 
  1  4  2  0  0  0  0 
  2  5  1  0  0  0  0 
  2  6  2  0  0  0  0 
  7  3  2  0  0  0  0 
  3  8  1  0  0  0  0 
  9  4  1  0  0  0  0 
  7 10  1  0  0  0  0 
  7 11  1  0  0  0  0 
 12  9  1  0  0  0  0 
  9 11  2  0  0  0  0 
 10 13  1  0  0  0  0 
 10 14  2  0  0  0  0 
 12 15  1  0  0  0  0 
 12 16  2  0  0  0  0 
M  CHG  1   2   1
M  CHG  1   5  -1
M  CHG  1  10   1
M  CHG  1  12   1
M  CHG  1  13  -1
M  CHG  1  15  -1
M  END
> <Name>
2,4,6-TRINITROTOLUENE

> <Source>
DSSTox2DMolFile

> <Tox>
-5.096

> <CAS>
118-96-7

$$$$

  CDK

  6  6  0  0  0  0  0  0  0  0999 V2000
    0.8951   -1.2979    0.0000 C   0  0  0  0  0  0  0  0  0  0  0  0
    2.1138   -1.8418    0.0000 C   0  0  0  0  0  0  0  0  0  0  0  0
    0.0000   -2.2893    0.0000 C   0  0  0  0  0  0  0  0  0  0  0  0
    0.6231   -0.0000    0.0000 O   0  0  0  0  0  0  0  0  0  0  0  0
    1.9692   -3.1534    0.0000 C   0  0  0  0  0  0  0  0  0  0  0  0
    0.6713   -3.4426    0.0000 C   0  0  0  0  0  0  0  0  0  0  0  0
  1  2  1  0  0  0  0 
  1  3  1  0  0  0  0 
  1  4  2  0  0  0  0 
  2  5  1  0  0  0  0 
  6  3  1  0  0  0  0 
  5  6  1  0  0  0  0 
M  END
> <Name>
CYCLOPENTANONE

> <Source>
DSSTox2DMolFile

> <Tox>
1.057

> <CAS>
120-92-3

$$$$

  CDK

 24 25  0  0  0  0  0  0  0  0999 V2000
    4.1406   -1.0631    0.0000 C   0  0  0  0  0  0  0  0  0  0  0  0
    3.4411   -2.2941    0.0000 C   0  0  0  0  0  0  0  0  0  0  0  0
    4.8540   -2.2941    0.0000 C   0  0  0  0  0  0  0  0  0  0  0  0
    4.7560   -0.0000    0.0000 C   0  0  0  0  0  0  0  0  0  0  0  0
    3.5391   -0.0000    0.0000 C   0  0  0  0  0  0  0  0  0  0  0  0
    2.2801   -2.9376    0.0000 C   0  0  0  0  0  0  0  0  0  0  0  0
    6.0290   -2.9376    0.0000 C   0  0  0  0  0  0  0  0  0  0  0  0
    1.0771   -2.2661    0.0000 C   0  0  0  0  0  0  0  0  0  0  0  0
    7.1900   -2.2242    0.0000 O   0  0  0  0  0  0  0  0  0  0  0  0
    6.0290   -4.3224    0.0000 O   0  0  0  0  0  0  0  0  0  0  0  0
    1.0771   -0.8953    0.0000 C   0  0  0  0  0  0  0  0  0  0  0  0
    0.0000   -2.9236    0.0000 C   0  0  0  0  0  0  0  0  0  0  0  0
    8.5609   -2.6578    0.0000 C   0  0  0  0  0  0  0  0  0  0  0  0
    9.0085   -3.9727    0.0000 C   0  0  0  0  0  0  0  0  0  0  0  0
    9.6660   -1.8465    0.0000 C   0  0  0  0  0  0  0  0  0  0  0  0
   10.3654   -3.9727    0.0000 C   0  0  0  0  0  0  0  0  0  0  0  0
    8.1272   -4.8680    0.0000 C   0  0  0  0  0  0  0  0  0  0  0  0
   10.7291   -2.6438    0.0000 C   0  0  0  0  0  0  0  0  0  0  0  0
   11.2467   -4.8680    0.0000 C   0  0  0  0  0  0  0  0  0  0  0  0
   11.5684   -1.9724    0.0000 O   0  0  0  0  0  0  0  0  0  0  0  0
   12.5196   -4.5462    0.0000 C   0  0  0  0  0  0  0  0  0  0  0  0
   13.4428   -5.4974    0.0000 C   0  0  0  0  0  0  0  0  0  0  0  0
   13.0791   -6.7564    0.0000 C   0  0  0  0  0  0  0  0  0  0  0  0
   13.9884   -7.7216    0.0000 C   0  0  0  0  0  0  0  0  0  0  0  0
  1  2  1  0  0  0  0 
  1  3  1  0  0  0  0 
  1  4  1  0  0  0  0 
  1  5  1  0  0  0  0 
  2  6  1  1  0  0  0 
  2  3  1  0  0  0  0 
  3  7  1  6  0  0  0 
  6  8  2  0  0  0  0 
  7  9  1  0  0  0  0 
  7 10  2  0  0  0  0 
  8 11  1  0  0  0  0 
  8 12  1  0  0  0  0 
 13  9  1  1  0  0  0 
 14 13  1  0  0  0  0 
 13 15  1  0  0  0  0 
 16 14  2  0  0  0  0 
 14 17  1  0  0  0  0 
 18 15  1  0  0  0  0 
 16 19  1  0  0  0  0 
 16 18  1  0  0  0  0 
 18 20  2  0  0  0  0 
 21 19  1  0  0  0  0 
 22 21  2  0  0  0  0 
 22 23  1  0  0  0  0 
 23 24  2  0  0  0  0 
M  END
> <Name>
PYRETHRIN I

> <Source>
DSSTox2DMolFile

> <Tox>
-4.693

> <CAS>
121-21-1

$$$$

  CDK

 12 12  0  0  0  0  0  0  0  0999 V2000
    8.0680   -2.0009    0.0000 O   0  0  0  0  0  0  0  0  0  0  0  0
    6.9143   -2.6624    0.0000 C   0  0  0  0  0  0  0  0  0  0  0  0
    5.7605   -2.0009    0.0000 C   0  0  0  0  0  0  0  0  0  0  0  0
    4.6068   -2.6624    0.0000 C   0  0  0  0  0  0  0  0  0  0  0  0
    5.7605   -0.6696    0.0000 C   0  0  0  0  0  0  0  0  0  0  0  0
    3.4612   -2.0009    0.0000 C   0  0  0  0  0  0  0  0  0  0  0  0
    4.6068   -0.0000    0.0000 C   0  0  0  0  0  0  0  0  0  0  0  0
    2.3074   -2.6624    0.0000 O   0  0  0  0  0  0  0  0  0  0  0  0
    3.4612   -0.6696    0.0000 C   0  0  0  0  0  0  0  0  0  0  0  0
    1.1537   -2.0009    0.0000 C   0  0  0  0  0  0  0  0  0  0  0  0
    2.3074   -0.0000    0.0000 O   0  0  0  0  0  0  0  0  0  0  0  0
    0.0000   -2.6624    0.0000 C   0  0  0  0  0  0  0  0  0  0  0  0
  1  2  2  0  0  0  0 
  2  3  1  0  0  0  0 
  3  4  2  0  0  0  0 
  3  5  1  0  0  0  0 
  4  6  1  0  0  0  0 
  7  5  2  0  0  0  0 
  6  8  1  0  0  0  0 
  6  9  2  0  0  0  0 
  9  7  1  0  0  0  0 
  8 10  1  0  0  0  0 
  9 11  1  0  0  0  0 
 10 12  1  0  0  0  0 
M  END
> <Name>
BENZALDEHYDE, 3-ETHOXY-4-HYDROXY-

> <Source>
DSSTox2DMolFile

> <Tox>
-4.983

> <CAS>
121-32-4

$$$$

  CDK

 11 11  0  0  0  0  0  0  0  0999 V2000
    4.6094   -1.9972    0.0000 C   0  0  0  0  0  0  0  0  0  0  0  0
    5.7565   -2.6606    0.0000 C   0  0  0  0  0  0  0  0  0  0  0  0
    3.4553   -2.6606    0.0000 C   0  0  0  0  0  0  0  0  0  0  0  0
    4.6094   -0.6634    0.0000 C   0  0  0  0  0  0  0  0  0  0  0  0
    6.9106   -1.9972    0.0000 O   0  0  0  0  0  0  0  0  0  0  0  0
    2.3012   -1.9972    0.0000 C   0  0  0  0  0  0  0  0  0  0  0  0
    3.4553   -0.0000    0.0000 C   0  0  0  0  0  0  0  0  0  0  0  0
    1.1541   -2.6606    0.0000 O   0  0  0  0  0  0  0  0  0  0  0  0
    2.3012   -0.6634    0.0000 C   0  0  0  0  0  0  0  0  0  0  0  0
    0.0000   -1.9972    0.0000 C   0  0  0  0  0  0  0  0  0  0  0  0
    1.1541   -0.0000    0.0000 O   0  0  0  0  0  0  0  0  0  0  0  0
  1  2  1  0  0  0  0 
  1  3  2  0  0  0  0 
  1  4  1  0  0  0  0 
  2  5  2  0  0  0  0 
  3  6  1  0  0  0  0 
  7  4  2  0  0  0  0 
  6  8  1  0  0  0  0 
  6  9  2  0  0  0  0 
  9  7  1  0  0  0  0 
  8 10  1  0  0  0  0 
  9 11  1  0  0  0  0 
M  END
> <Name>
VANILLIN

> <Source>
DSSTox2DMolFile

> <Tox>
-3.928

> <CAS>
121-33-5

$$$$

  CDK

 10 10  0  0  0  0  0  0  0  0999 V2000
    0.0000   -0.0000    0.0000 Cl  0  0  0  0  0  0  0  0  0  0  0  0
    0.6656   -1.1497    0.0000 C   0  0  0  0  0  0  0  0  0  0  0  0
    1.9968   -1.1497    0.0000 C   0  0  0  0  0  0  0  0  0  0  0  0
    0.0000   -2.3040    0.0000 C   0  0  0  0  0  0  0  0  0  0  0  0
    2.6577   -2.3040    0.0000 C   0  0  0  0  0  0  0  0  0  0  0  0
    0.6656   -3.4536    0.0000 C   0  0  0  0  0  0  0  0  0  0  0  0
    3.9889   -2.3040    0.0000 N   0  0  0  0  0  0  0  0  0  0  0  0
    1.9968   -3.4536    0.0000 C   0  0  0  0  0  0  0  0  0  0  0  0
    4.6545   -3.4536    0.0000 O   0  0  0  0  0  0  0  0  0  0  0  0
    4.6545   -1.1497    0.0000 O   0  0  0  0  0  0  0  0  0  0  0  0
  1  2  1  0  0  0  0 
  2  3  2  0  0  0  0 
  2  4  1  0  0  0  0 
  3  5  1  0  0  0  0 
  6  4  2  0  0  0  0 
  5  7  1  0  0  0  0 
  5  8  2  0  0  0  0 
  8  6  1  0  0  0  0 
  7  9  2  0  0  0  0 
  7 10  1  0  0  0  0 
M  CHG  1   7   1
M  CHG  1  10  -1
M  END
> <Name>
3-CHLORO-NITROBENZENE

> <Source>
DSSTox2DMolFile

> <Tox>
-1.013

> <CAS>
121-73-3

$$$$

  CDK

 13 14  0  0  0  0  0  0  0  0999 V2000
    1.1539   -2.6602    0.0000 C   0  0  0  0  0  0  0  0  0  0  0  0
    0.0000   -1.9969    0.0000 C   0  0  0  0  0  0  0  0  0  0  0  0
    2.3009   -1.9969    0.0000 C   0  0  0  0  0  0  0  0  0  0  0  0
    0.0000   -0.6633    0.0000 C   0  0  0  0  0  0  0  0  0  0  0  0
    2.3009   -0.6633    0.0000 C   0  0  0  0  0  0  0  0  0  0  0  0
    3.4548   -2.6602    0.0000 N   0  0  0  0  0  0  0  0  0  0  0  0
    1.1539   -0.0000    0.0000 C   0  0  0  0  0  0  0  0  0  0  0  0
    4.6087   -1.9969    0.0000 C   0  0  0  0  0  0  0  0  0  0  0  0
    4.6087   -0.6633    0.0000 C   0  0  0  0  0  0  0  0  0  0  0  0
    5.7557   -2.6602    0.0000 C   0  0  0  0  0  0  0  0  0  0  0  0
    5.7557   -0.0000    0.0000 C   0  0  0  0  0  0  0  0  0  0  0  0
    6.9096   -1.9969    0.0000 C   0  0  0  0  0  0  0  0  0  0  0  0
    6.9096   -0.6633    0.0000 C   0  0  0  0  0  0  0  0  0  0  0  0
  1  2  2  0  0  0  0 
  1  3  1  0  0  0  0 
  2  4  1  0  0  0  0 
  5  3  2  0  0  0  0 
  3  6  1  0  0  0  0 
  4  7  2  0  0  0  0 
  7  5  1  0  0  0  0 
  6  8  1  0  0  0  0 
  8  9  2  0  0  0  0 
  8 10  1  0  0  0  0 
  9 11  1  0  0  0  0 
 12 10  2  0  0  0  0 
 11 13  2  0  0  0  0 
 13 12  1  0  0  0  0 
M  END
> <Name>
DIPHENYLAMINE

> <Source>
DSSTox2DMolFile

> <Tox>
-3.174

> <CAS>
122-39-4

$$$$

  CDK

  9  9  0  0  0  0  0  0  0  0999 V2000
    2.4494   -0.4237    0.0000 C   0  0  0  0  0  0  0  0  0  0  0  0
    0.9819   -0.2211    0.0000 C   0  0  0  0  0  0  0  0  0  0  0  0
    3.2548    0.4806    0.0000 O   0  0  0  0  0  0  0  0  0  0  0  0
    0.1461   -1.3432    0.0000 C   0  0  0  0  0  0  0  0  0  0  0  0
    0.4242    1.0585    0.0000 C   0  0  0  0  0  0  0  0  0  0  0  0
   -1.2319   -1.1987    0.0000 C   0  0  0  0  0  0  0  0  0  0  0  0
   -0.9541    1.2258    0.0000 C   0  0  0  0  0  0  0  0  0  0  0  0
   -1.7805    0.0936    0.0000 C   0  0  0  0  0  0  0  0  0  0  0  0
   -3.1430    0.1669    0.0000 O   0  0  0  0  0  0  0  0  0  0  0  0
  1  2  1  0  0  0  0 
  1  3  2  0  0  0  0 
  2  4  1  0  0  0  0 
  2  5  2  0  0  0  0 
  4  6  2  0  0  0  0 
  7  5  1  0  0  0  0 
  6  8  1  0  0  0  0 
  8  7  2  0  0  0  0 
  8  9  1  0  0  0  0 
M  END
> <Name>
4-HYDROXYBENZALDEHYDE

> <Source>
DougDB3DMolFile

> <Tox>
-3.947

> <CAS>
123-08-0

$$$$

  CDK

 10 10  0  0  0  0  0  0  0  0999 V2000
    5.9892   -1.1592    0.0000 C   0  0  0  0  0  0  0  0  0  0  0  0
    6.6621   -2.2984    0.0000 O   0  0  0  0  0  0  0  0  0  0  0  0
    4.6568   -1.1592    0.0000 C   0  0  0  0  0  0  0  0  0  0  0  0
    3.9973   -2.2984    0.0000 C   0  0  0  0  0  0  0  0  0  0  0  0
    3.9973   -0.0000    0.0000 C   0  0  0  0  0  0  0  0  0  0  0  0
    2.6648   -2.2984    0.0000 C   0  0  0  0  0  0  0  0  0  0  0  0
    2.6648   -0.0000    0.0000 C   0  0  0  0  0  0  0  0  0  0  0  0
    1.9920   -1.1592    0.0000 C   0  0  0  0  0  0  0  0  0  0  0  0
    0.6595   -1.1592    0.0000 O   0  0  0  0  0  0  0  0  0  0  0  0
    0.0000   -0.0000    0.0000 C   0  0  0  0  0  0  0  0  0  0  0  0
  1  2  2  0  0  0  0 
  1  3  1  0  0  0  0 
  3  4  2  0  0  0  0 
  3  5  1  0  0  0  0 
  4  6  1  0  0  0  0 
  5  7  2  0  0  0  0 
  6  8  2  0  0  0  0 
  7  8  1  0  0  0  0 
  8  9  1  0  0  0  0 
  9 10  1  0  0  0  0 
M  END
> <Name>
P-ANISALDEHYDE

> <Source>
DSSTox2DMolFile

> <Tox>
-1.483

> <CAS>
123-11-5

$$$$

  CDK

  8  7  0  0  0  0  0  0  0  0999 V2000
    2.3044   -1.9956    0.0000 C   0  0  0  0  0  0  0  0  0  0  0  0
    1.1522   -1.3319    0.0000 C   0  0  0  0  0  0  0  0  0  0  0  0
    3.4566   -1.3319    0.0000 C   0  0  0  0  0  0  0  0  0  0  0  0
    0.0000   -1.9956    0.0000 C   0  0  0  0  0  0  0  0  0  0  0  0
    1.1522   -0.0000    0.0000 O   0  0  0  0  0  0  0  0  0  0  0  0
    2.7929   -0.1797    0.0000 C   0  0  0  0  0  0  0  0  0  0  0  0
    4.6088   -0.6683    0.0000 C   0  0  0  0  0  0  0  0  0  0  0  0
    4.1203   -2.4842    0.0000 O   0  0  0  0  0  0  0  0  0  0  0  0
  1  2  1  0  0  0  0 
  1  3  1  0  0  0  0 
  2  4  1  0  0  0  0 
  2  5  2  0  0  0  0 
  3  6  1  0  0  0  0 
  3  7  1  0  0  0  0 
  3  8  1  0  0  0  0 
M  END
> <Name>
4-HYDROXY-4-METHYL-2-PENTANONE

> <Source>
DSSTox2DMolFile

> <Tox>
0.233

> <CAS>
123-42-2

$$$$

  CDK

  8  7  0  0  0  0  0  0  0  0999 V2000
    3.9913   -0.0000    0.0000 C   0  0  0  0  0  0  0  0  0  0  0  0
    4.6555   -1.1549    0.0000 C   0  0  0  0  0  0  0  0  0  0  0  0
    5.9839   -1.1549    0.0000 O   0  0  0  0  0  0  0  0  0  0  0  0
    3.9913   -2.3038    0.0000 O   0  0  0  0  0  0  0  0  0  0  0  0
    2.6569   -2.3038    0.0000 C   0  0  0  0  0  0  0  0  0  0  0  0
    1.9926   -1.1549    0.0000 C   0  0  0  0  0  0  0  0  0  0  0  0
    0.6642   -1.1549    0.0000 C   0  0  0  0  0  0  0  0  0  0  0  0
    0.0000   -0.0000    0.0000 C   0  0  0  0  0  0  0  0  0  0  0  0
  1  2  1  0  0  0  0 
  2  3  2  0  0  0  0 
  2  4  1  0  0  0  0 
  4  5  1  0  0  0  0 
  5  6  1  0  0  0  0 
  6  7  1  0  0  0  0 
  7  8  1  0  0  0  0 
M  END
> <Name>
N-BUTYL ACETATE

> <Source>
DSSTox2DMolFile

> <Tox>
1.061

> <CAS>
123-86-4

$$$$

  CDK

  8  7  0  0  0  0  0  0  0  0999 V2000
    4.6105   -0.6621    0.0000 C   0  0  0  0  0  0  0  0  0  0  0  0
    5.7651   -0.0000    0.0000 C   0  0  0  0  0  0  0  0  0  0  0  0
    3.4639   -0.0000    0.0000 C   0  0  0  0  0  0  0  0  0  0  0  0
    6.9197   -0.6621    0.0000 C   0  0  0  0  0  0  0  0  0  0  0  0
    2.3093   -0.6621    0.0000 C   0  0  0  0  0  0  0  0  0  0  0  0
    8.0744   -0.0000    0.0000 N   0  0  0  0  0  0  0  0  0  0  0  0
    1.1546   -0.0000    0.0000 C   0  0  0  0  0  0  0  0  0  0  0  0
    0.0000   -0.6621    0.0000 N   0  0  0  0  0  0  0  0  0  0  0  0
  1  2  1  0  0  0  0 
  1  3  1  0  0  0  0 
  2  4  1  0  0  0  0 
  3  5  1  0  0  0  0 
  4  6  1  0  0  0  0 
  5  7  1  0  0  0  0 
  7  8  1  0  0  0  0 
M  END
> <Name>
HEXAMETHYLENE DIAMINE

> <Source>
DSSTox2DMolFile

> <Tox>
-0.928

> <CAS>
124-09-4

$$$$

  CDK

  9  8  0  0  0  0  0  0  0  0999 V2000
    5.3953    3.0532    2.2553 C   0  0  0  0  0  0  0  0  0  0  0  0
    4.7475    3.4411    0.9333 C   0  0  0  0  0  0  0  0  0  0  0  0
    6.9124    3.1061    2.1785 C   0  0  0  0  0  0  0  0  0  0  0  0
    3.2607    3.1249    0.9174 C   0  0  0  0  0  0  0  0  0  0  0  0
    7.4622    2.0697    1.2099 C   0  0  0  0  0  0  0  0  0  0  0  0
    3.0082    1.6254    0.9964 C   0  0  0  0  0  0  0  0  0  0  0  0
    8.9506    2.2267    1.0047 C   0  0  0  0  0  0  0  0  0  0  0  0
    1.5568    1.3270    1.1211 C   0  0  0  0  0  0  0  0  0  0  0  0
    1.0602    0.5079    2.0404 C   0  0  0  0  0  0  0  0  0  0  0  0
  1  2  1  0  0  0  0 
  1  3  1  0  0  0  0 
  2  4  1  0  0  0  0 
  3  5  1  0  0  0  0 
  4  6  1  0  0  0  0 
  5  7  1  0  0  0  0 
  6  8  1  0  0  0  0 
  8  9  2  0  0  0  0 
M  END
> <Name>
ISONONENE

> <Source>
NIST3DMolFile

> <Tox>
0.732

> <CAS>
124-11-8

$$$$

  CDK

 10  9  0  0  0  0  0  0  0  0999 V2000
    0.0000   -0.6638    0.0000 C   0  0  0  0  0  0  0  0  0  0  0  0
    1.1513   -0.0000    0.0000 C   0  0  0  0  0  0  0  0  0  0  0  0
    2.3027   -0.6638    0.0000 C   0  0  0  0  0  0  0  0  0  0  0  0
    3.4540   -0.0000    0.0000 C   0  0  0  0  0  0  0  0  0  0  0  0
    4.6053   -0.6638    0.0000 C   0  0  0  0  0  0  0  0  0  0  0  0
    5.7670   -0.0000    0.0000 C   0  0  0  0  0  0  0  0  0  0  0  0
    6.9184   -0.6638    0.0000 C   0  0  0  0  0  0  0  0  0  0  0  0
    8.0697   -0.0000    0.0000 C   0  0  0  0  0  0  0  0  0  0  0  0
    9.2210   -0.6638    0.0000 C   0  0  0  0  0  0  0  0  0  0  0  0
   10.3724   -0.0000    0.0000 O   0  0  0  0  0  0  0  0  0  0  0  0
  1  2  1  0  0  0  0 
  2  3  1  0  0  0  0 
  3  4  1  0  0  0  0 
  4  5  1  0  0  0  0 
  5  6  1  0  0  0  0 
  6  7  1  0  0  0  0 
  7  8  1  0  0  0  0 
  8  9  1  0  0  0  0 
  9 10  2  0  0  0  0 
M  END
> <Name>
NONANAL

> <Source>
DSSTox2DMolFile

> <Tox>
-0.432

> <CAS>
124-19-6

$$$$

  CDK

 13 12  0  0  0  0  0  0  0  0999 V2000
    0.0000   -0.6638    0.0000 C   0  0  0  0  0  0  0  0  0  0  0  0
    1.1479   -0.0000    0.0000 C   0  0  0  0  0  0  0  0  0  0  0  0
    2.3096   -0.6638    0.0000 C   0  0  0  0  0  0  0  0  0  0  0  0
    3.4575   -0.0000    0.0000 C   0  0  0  0  0  0  0  0  0  0  0  0
    4.6053   -0.6638    0.0000 C   0  0  0  0  0  0  0  0  0  0  0  0
    5.7670   -0.0000    0.0000 C   0  0  0  0  0  0  0  0  0  0  0  0
    6.9149   -0.6638    0.0000 C   0  0  0  0  0  0  0  0  0  0  0  0
    8.0628   -0.0000    0.0000 C   0  0  0  0  0  0  0  0  0  0  0  0
    9.2245   -0.6638    0.0000 C   0  0  0  0  0  0  0  0  0  0  0  0
   10.3724   -0.0000    0.0000 C   0  0  0  0  0  0  0  0  0  0  0  0
   11.5202   -0.6638    0.0000 C   0  0  0  0  0  0  0  0  0  0  0  0
   12.6819   -0.0000    0.0000 C   0  0  0  0  0  0  0  0  0  0  0  0
   13.8298   -0.6638    0.0000 N   0  0  0  0  0  0  0  0  0  0  0  0
  1  2  1  0  0  0  0 
  2  3  1  0  0  0  0 
  3  4  1  0  0  0  0 
  4  5  1  0  0  0  0 
  5  6  1  0  0  0  0 
  6  7  1  0  0  0  0 
  7  8  1  0  0  0  0 
  8  9  1  0  0  0  0 
  9 10  1  0  0  0  0 
 10 11  1  0  0  0  0 
 11 12  1  0  0  0  0 
 12 13  1  0  0  0  0 
M  END
> <Name>
N-DODECYLAMINE

> <Source>
DSSTox2DMolFile

> <Tox>
-2.094

> <CAS>
124-22-1

$$$$

  CDK

 20 19  0  0  0  0  0  0  0  0999 V2000
    5.3236   -3.9907    0.0000 O   0  0  0  0  0  0  0  0  0  0  0  0
    3.9907   -3.9907    0.0000 P   0  0  0  0  0  0  0  0  0  0  0  0
    3.9907   -5.3236    0.0000 O   0  0  0  0  0  0  0  0  0  0  0  0
    2.6578   -3.9907    0.0000 O   0  0  0  0  0  0  0  0  0  0  0  0
    3.9907   -2.6578    0.0000 O   0  0  0  0  0  0  0  0  0  0  0  0
    5.1400   -5.9861    0.0000 C   0  0  0  0  0  0  0  0  0  0  0  0
    1.9954   -5.1400    0.0000 C   0  0  0  0  0  0  0  0  0  0  0  0
    5.1400   -1.9954    0.0000 C   0  0  0  0  0  0  0  0  0  0  0  0
    5.1400   -7.3190    0.0000 C   0  0  0  0  0  0  0  0  0  0  0  0
    0.6625   -5.1400    0.0000 C   0  0  0  0  0  0  0  0  0  0  0  0
    5.1400   -0.6625    0.0000 C   0  0  0  0  0  0  0  0  0  0  0  0
    6.2974   -7.9814    0.0000 C   0  0  0  0  0  0  0  0  0  0  0  0
    3.9907   -7.9814    0.0000 Br  0  0  0  0  0  0  0  0  0  0  0  0
    0.0000   -6.2974    0.0000 C   0  0  0  0  0  0  0  0  0  0  0  0
    0.0000   -3.9907    0.0000 Br  0  0  0  0  0  0  0  0  0  0  0  0
    3.9907   -0.0000    0.0000 C   0  0  0  0  0  0  0  0  0  0  0  0
    6.2974   -0.0000    0.0000 Br  0  0  0  0  0  0  0  0  0  0  0  0
    7.4467   -7.3190    0.0000 Br  0  0  0  0  0  0  0  0  0  0  0  0
    0.6625   -7.4467    0.0000 Br  0  0  0  0  0  0  0  0  0  0  0  0
    2.8414   -0.6625    0.0000 Br  0  0  0  0  0  0  0  0  0  0  0  0
  1  2  2  0  0  0  0 
  2  3  1  0  0  0  0 
  2  4  1  0  0  0  0 
  2  5  1  0  0  0  0 
  3  6  1  0  0  0  0 
  4  7  1  0  0  0  0 
  5  8  1  0  0  0  0 
  6  9  1  0  0  0  0 
  7 10  1  0  0  0  0 
  8 11  1  0  0  0  0 
  9 12  1  0  0  0  0 
  9 13  1  0  0  0  0 
 10 14  1  0  0  0  0 
 10 15  1  0  0  0  0 
 11 16  1  0  0  0  0 
 11 17  1  0  0  0  0 
 12 18  1  0  0  0  0 
 14 19  1  0  0  0  0 
 16 20  1  0  0  0  0 
M  END
> <Name>
TRIS(2,3-DIBROMOPROPYL) PHOSPHATE

> <Source>
DSSTox2DMolFile

> <Tox>
-3.721

> <CAS>
126-72-7

$$$$

  CDK

  5  4  0  0  0  0  0  0  0  0999 V2000
    0.0000   -0.0000    0.0000 N   0  0  0  0  0  0  0  0  0  0  0  0
    1.1416   -0.6587    0.0000 C   0  0  0  0  0  0  0  0  0  0  0  0
    2.3073   -1.3313    0.0000 C   0  0  0  0  0  0  0  0  0  0  0  0
    2.3073   -2.6625    0.0000 C   0  0  0  0  0  0  0  0  0  0  0  0
    3.4489   -0.6587    0.0000 C   0  0  0  0  0  0  0  0  0  0  0  0
  1  2  3  0  0  0  0 
  2  3  1  0  0  0  0 
  3  4  2  0  0  0  0 
  3  5  1  0  0  0  0 
M  END
> <Name>
METHACRYLONITRILE

> <Source>
DSSTox2DMolFile

> <Tox>
1.852

> <CAS>
126-98-7

$$$$

  CDK

 18 20  0  0  0  0  0  0  0  0999 V2000
    3.4487    2.4991    0.0000 C   0  0  0  0  0  0  0  0  0  0  0  0
    3.4487    1.4994    0.0000 C   0  0  0  0  0  0  0  0  0  0  0  0
    2.5990    2.9989    0.0000 C   0  0  0  0  0  0  0  0  0  0  0  0
    4.2984    2.9989    0.0000 C   0  0  0  0  0  0  0  0  0  0  0  0
    2.5990    0.9996    0.0000 C   0  0  0  0  0  0  0  0  0  0  0  0
    4.2984    0.9996    0.0000 C   0  0  0  0  0  0  0  0  0  0  0  0
    1.6994    2.4991    0.0000 C   0  0  0  0  0  0  0  0  0  0  0  0
    2.5990    3.9985    0.0000 O   0  0  0  0  0  0  0  0  0  0  0  0
    4.2984    3.9985    0.0000 N   0  0  0  0  0  0  0  0  0  0  0  0
    5.1981    2.4991    0.0000 C   0  0  0  0  0  0  0  0  0  0  0  0
    2.5990    0.0000    0.0000 O   0  0  0  0  0  0  0  0  0  0  0  0
    1.6994    1.4994    0.0000 C   0  0  0  0  0  0  0  0  0  0  0  0
    4.2984    0.0000    0.0000 N   0  0  0  0  0  0  0  0  0  0  0  0
    5.1981    1.4994    0.0000 C   0  0  0  0  0  0  0  0  0  0  0  0
    0.8497    2.9989    0.0000 C   0  0  0  0  0  0  0  0  0  0  0  0
    0.8497    0.9996    0.0000 C   0  0  0  0  0  0  0  0  0  0  0  0
    0.0000    2.4991    0.0000 C   0  0  0  0  0  0  0  0  0  0  0  0
    0.0000    1.4994    0.0000 C   0  0  0  0  0  0  0  0  0  0  0  0
  1  2  2  0  0  0  0 
  3  1  1  0  0  0  0 
  1  4  1  0  0  0  0 
  2  5  1  0  0  0  0 
  6  2  1  0  0  0  0 
  7  3  1  0  0  0  0 
  3  8  2  0  0  0  0 
  4  9  1  0  0  0  0 
  4 10  2  0  0  0  0 
  5 11  2  0  0  0  0 
  5 12  1  0  0  0  0 
  6 13  1  0  0  0  0 
 14  6  2  0  0  0  0 
  7 12  2  0  0  0  0 
 15  7  1  0  0  0  0 
 10 14  1  0  0  0  0 
 12 16  1  0  0  0  0 
 17 15  2  0  0  0  0 
 16 18  2  0  0  0  0 
 18 17  1  0  0  0  0 
M  END
> <Name>
DISPERSE VIOLET 1

> <Source>
NIST2DMolFile

> <Tox>
-9.699

> <CAS>
128-95-0

$$$$

  CDK

 12 11  0  0  0  0  0  0  0  0999 V2000
    2.3008   -3.9867    0.0000 S   0  0  0  0  0  0  0  0  0  0  0  0
    2.3008   -2.6601    0.0000 C   0  0  0  0  0  0  0  0  0  0  0  0
    1.1539   -1.9899    0.0000 N   0  0  0  0  0  0  0  0  0  0  0  0
    3.4547   -1.9899    0.0000 S   0  0  0  0  0  0  0  0  0  0  0  0
    1.1539   -0.6633    0.0000 C   0  0  0  0  0  0  0  0  0  0  0  0
    0.0000   -2.6601    0.0000 C   0  0  0  0  0  0  0  0  0  0  0  0
    4.6085   -2.6601    0.0000 S   0  0  0  0  0  0  0  0  0  0  0  0
    5.7555   -1.9899    0.0000 C   0  0  0  0  0  0  0  0  0  0  0  0
    6.9094   -2.6601    0.0000 S   0  0  0  0  0  0  0  0  0  0  0  0
    5.7555   -0.6633    0.0000 N   0  0  0  0  0  0  0  0  0  0  0  0
    4.6085   -0.0000    0.0000 C   0  0  0  0  0  0  0  0  0  0  0  0
    6.9094   -0.0000    0.0000 C   0  0  0  0  0  0  0  0  0  0  0  0
  1  2  2  0  0  0  0 
  2  3  1  0  0  0  0 
  2  4  1  0  0  0  0 
  3  5  1  0  0  0  0 
  3  6  1  0  0  0  0 
  4  7  1  0  0  0  0 
  7  8  1  0  0  0  0 
  8  9  2  0  0  0  0 
  8 10  1  0  0  0  0 
 10 11  1  0  0  0  0 
 10 12  1  0  0  0  0 
M  END
> <Name>
THIRAM

> <Source>
DSSTox2DMolFile

> <Tox>
-4.762

> <CAS>
137-26-8

$$$$

  CDK

 11 11  0  0  0  0  0  0  0  0999 V2000
    5.7843   -1.3423    0.0000 C   0  0  0  0  0  0  0  0  0  0  0  0
    4.6219   -2.0134    0.0000 C   0  0  0  0  0  0  0  0  0  0  0  0
    5.7843   -0.0000    0.0000 O   0  0  0  0  0  0  0  0  0  0  0  0
    6.9190   -1.9927    0.0000 O   0  0  0  0  0  0  0  0  0  0  0  0
    3.4595   -1.3423    0.0000 C   0  0  0  0  0  0  0  0  0  0  0  0
    2.2764   -2.0273    0.0000 C   0  0  0  0  0  0  0  0  0  0  0  0
    1.1347   -1.3769    0.0000 C   0  0  0  0  0  0  0  0  0  0  0  0
    2.2764   -3.3696    0.0000 C   0  0  0  0  0  0  0  0  0  0  0  0
    0.0000   -2.0273    0.0000 C   0  0  0  0  0  0  0  0  0  0  0  0
    1.1347   -4.0200    0.0000 C   0  0  0  0  0  0  0  0  0  0  0  0
    0.0000   -3.3696    0.0000 C   0  0  0  0  0  0  0  0  0  0  0  0
  1  2  1  0  0  0  0 
  1  3  2  0  0  0  0 
  1  4  1  0  0  0  0 
  2  5  2  0  0  0  0 
  5  6  1  0  0  0  0 
  6  7  1  0  0  0  0 
  6  8  2  0  0  0  0 
  7  9  2  0  0  0  0 
  8 10  1  0  0  0  0 
  9 11  1  0  0  0  0 
 10 11  2  0  0  0  0 
M  END
> <Name>
2-PROPENOIC ACID, 3-PHENYL-, (E)-

> <Source>
DSSTox2DMolFile

> <Tox>
-4.686

> <CAS>
140-10-3

$$$$

  CDK

 11 11  0  0  0  0  0  0  0  0999 V2000
    0.0000   -2.3079    0.0000 C   0  0  0  0  0  0  0  0  0  0  0  0
    0.6651   -1.1573    0.0000 C   0  0  0  0  0  0  0  0  0  0  0  0
    0.0000   -0.0000    0.0000 O   0  0  0  0  0  0  0  0  0  0  0  0
    1.9953   -1.1573    0.0000 O   0  0  0  0  0  0  0  0  0  0  0  0
    2.6605   -2.3079    0.0000 C   0  0  0  0  0  0  0  0  0  0  0  0
    3.9907   -2.3079    0.0000 C   0  0  0  0  0  0  0  0  0  0  0  0
    4.6558   -1.1573    0.0000 C   0  0  0  0  0  0  0  0  0  0  0  0
    4.6558   -3.4586    0.0000 C   0  0  0  0  0  0  0  0  0  0  0  0
    5.9860   -1.1573    0.0000 C   0  0  0  0  0  0  0  0  0  0  0  0
    5.9860   -3.4586    0.0000 C   0  0  0  0  0  0  0  0  0  0  0  0
    6.6511   -2.3079    0.0000 C   0  0  0  0  0  0  0  0  0  0  0  0
  1  2  1  0  0  0  0 
  2  3  2  0  0  0  0 
  2  4  1  0  0  0  0 
  4  5  1  0  0  0  0 
  5  6  1  0  0  0  0 
  6  7  2  0  0  0  0 
  6  8  1  0  0  0  0 
  7  9  1  0  0  0  0 
 10  8  2  0  0  0  0 
  9 11  2  0  0  0  0 
 11 10  1  0  0  0  0 
M  END
> <Name>
BENZYL ACETATE

> <Source>
DSSTox2DMolFile

> <Tox>
-0.752

> <CAS>
140-11-4

$$$$

  CDK

  7  6  0  0  0  0  0  0  0  0999 V2000
    2.6592   -0.0000    0.0000 O   0  0  0  0  0  0  0  0  0  0  0  0
    1.9979   -1.1550    0.0000 C   0  0  0  0  0  0  0  0  0  0  0  0
    2.6592   -2.3053    0.0000 O   0  0  0  0  0  0  0  0  0  0  0  0
    0.6660   -1.1550    0.0000 C   0  0  0  0  0  0  0  0  0  0  0  0
    3.9912   -2.3053    0.0000 C   0  0  0  0  0  0  0  0  0  0  0  0
    0.0000   -2.3053    0.0000 C   0  0  0  0  0  0  0  0  0  0  0  0
    4.6571   -1.1550    0.0000 C   0  0  0  0  0  0  0  0  0  0  0  0
  1  2  2  0  0  0  0 
  2  3  1  0  0  0  0 
  2  4  1  0  0  0  0 
  3  5  1  0  0  0  0 
  4  6  2  0  0  0  0 
  5  7  1  0  0  0  0 
M  END
> <Name>
ETHYL ACRYLATE

> <Source>
DSSTox2DMolFile

> <Tox>
1.587

> <CAS>
140-88-5

$$$$

  CDK

 14 13  0  0  0  0  0  0  0  0999 V2000
   10.3655   -2.0005    0.0000 C   0  0  0  0  0  0  0  0  0  0  0  0
   10.3655   -0.6738    0.0000 C   0  0  0  0  0  0  0  0  0  0  0  0
    9.2149   -0.0000    0.0000 O   0  0  0  0  0  0  0  0  0  0  0  0
    8.0643   -0.6738    0.0000 C   0  0  0  0  0  0  0  0  0  0  0  0
    8.0643   -2.0005    0.0000 O   0  0  0  0  0  0  0  0  0  0  0  0
    6.9138   -0.0000    0.0000 C   0  0  0  0  0  0  0  0  0  0  0  0
    5.7632   -0.6738    0.0000 C   0  0  0  0  0  0  0  0  0  0  0  0
    5.7632   -2.0005    0.0000 C   0  0  0  0  0  0  0  0  0  0  0  0
    4.6023   -2.6639    0.0000 C   0  0  0  0  0  0  0  0  0  0  0  0
    3.4517   -2.0005    0.0000 C   0  0  0  0  0  0  0  0  0  0  0  0
    3.4517   -0.6738    0.0000 O   0  0  0  0  0  0  0  0  0  0  0  0
    2.3011   -2.6639    0.0000 O   0  0  0  0  0  0  0  0  0  0  0  0
    1.1506   -2.0005    0.0000 C   0  0  0  0  0  0  0  0  0  0  0  0
    0.0000   -2.6639    0.0000 C   0  0  0  0  0  0  0  0  0  0  0  0
  1  2  1  0  0  0  0 
  2  3  1  0  0  0  0 
  3  4  1  0  0  0  0 
  4  5  2  0  0  0  0 
  4  6  1  0  0  0  0 
  6  7  1  0  0  0  0 
  7  8  1  0  0  0  0 
  8  9  1  0  0  0  0 
  9 10  1  0  0  0  0 
 10 11  2  0  0  0  0 
 10 12  1  0  0  0  0 
 12 13  1  0  0  0  0 
 13 14  1  0  0  0  0 
M  END
> <Name>
DIETHYLHEXANEDIOATE

> <Source>
DSSTox2DMolFile

> <Tox>
-1.239

> <CAS>
141-28-6

$$$$

  CDK

  5  5  0  0  0  0  0  0  0  0999 V2000
    1.2696   -0.0000    0.0000 C   0  0  0  0  0  0  0  0  0  0  0  0
    2.0423   -1.0765    0.0000 C   0  0  0  0  0  0  0  0  0  0  0  0
    0.0000   -0.4341    0.0000 C   0  0  0  0  0  0  0  0  0  0  0  0
    1.2696   -2.1703    0.0000 C   0  0  0  0  0  0  0  0  0  0  0  0
    0.0000   -1.7363    0.0000 C   0  0  0  0  0  0  0  0  0  0  0  0
  1  2  2  0  0  0  0 
  1  3  1  0  0  0  0 
  2  4  1  0  0  0  0 
  5  3  1  0  0  0  0 
  4  5  1  0  0  0  0 
M  END
> <Name>
CYCLOPENTENE

> <Source>
DSSTox2DMolFile

> <Tox>
2.580

> <CAS>
142-29-0

$$$$

  CDK

  6  6  0  0  0  0  0  0  0  0999 V2000
    1.5831    2.7549    2.3607 C   0  0  0  0  0  0  0  0  0  0  0  0
    1.0072    1.9141    1.2322 C   0  0  0  0  0  0  0  0  0  0  0  0
    3.0185    3.1432    2.0431 C   0  0  0  0  0  0  0  0  0  0  0  0
    1.9280    0.7337    0.9295 C   0  0  0  0  0  0  0  0  0  0  0  0
    3.8387    1.9016    1.6988 C   0  0  0  0  0  0  0  0  0  0  0  0
    3.2604    1.1307    0.6618 O   0  0  0  0  0  0  0  0  0  0  0  0
  2  1  1  0  0  0  0 
  1  3  1  0  0  0  0 
  4  2  1  0  0  0  0 
  3  5  1  0  0  0  0 
  6  4  1  0  0  0  0 
  5  6  1  0  0  0  0 
M  END
> <Name>
TETRAHYDROPYRAN

> <Source>
NIST3DMolFile

> <Tox>
1.854

> <CAS>
142-68-7

$$$$

  CDK

  7  6  0  0  0  0  0  0  0  0999 V2000
    3.4575   -0.0000    0.0000 N   0  0  0  0  0  0  0  0  0  0  0  0
    2.3027   -0.6638    0.0000 C   0  0  0  0  0  0  0  0  0  0  0  0
    4.6122   -0.6638    0.0000 C   0  0  0  0  0  0  0  0  0  0  0  0
    1.1548   -0.0000    0.0000 C   0  0  0  0  0  0  0  0  0  0  0  0
    5.7601   -0.0000    0.0000 C   0  0  0  0  0  0  0  0  0  0  0  0
    0.0000   -0.6638    0.0000 C   0  0  0  0  0  0  0  0  0  0  0  0
    6.9149   -0.6638    0.0000 C   0  0  0  0  0  0  0  0  0  0  0  0
  1  2  1  0  0  0  0 
  1  3  1  0  0  0  0 
  2  4  1  0  0  0  0 
  3  5  1  0  0  0  0 
  4  6  1  0  0  0  0 
  5  7  1  0  0  0  0 
M  END
> <Name>
DIPROPYLAMINE

> <Source>
DSSTox2DMolFile

> <Tox>
1.303

> <CAS>
142-84-7

$$$$

  CDK

 14 13  0  0  0  0  0  0  0  0999 V2000
    0.0000   -0.6604    0.0000 O   0  0  0  0  0  0  0  0  0  0  0  0
    1.1556   -0.0000    0.0000 C   0  0  0  0  0  0  0  0  0  0  0  0
    2.3113   -0.6604    0.0000 C   0  0  0  0  0  0  0  0  0  0  0  0
    3.4669   -0.0000    0.0000 O   0  0  0  0  0  0  0  0  0  0  0  0
    4.6225   -0.6604    0.0000 C   0  0  0  0  0  0  0  0  0  0  0  0
    5.7782   -0.0000    0.0000 C   0  0  0  0  0  0  0  0  0  0  0  0
    6.9338   -0.6604    0.0000 O   0  0  0  0  0  0  0  0  0  0  0  0
    8.0744   -0.0000    0.0000 C   0  0  0  0  0  0  0  0  0  0  0  0
    9.2301   -0.6604    0.0000 C   0  0  0  0  0  0  0  0  0  0  0  0
   10.3857   -0.0000    0.0000 O   0  0  0  0  0  0  0  0  0  0  0  0
   11.5413   -0.6604    0.0000 C   0  0  0  0  0  0  0  0  0  0  0  0
   12.6969   -0.0000    0.0000 C   0  0  0  0  0  0  0  0  0  0  0  0
   13.8526   -0.6604    0.0000 C   0  0  0  0  0  0  0  0  0  0  0  0
   15.0082   -0.0000    0.0000 C   0  0  0  0  0  0  0  0  0  0  0  0
  1  2  1  0  0  0  0 
  2  3  1  0  0  0  0 
  3  4  1  0  0  0  0 
  4  5  1  0  0  0  0 
  5  6  1  0  0  0  0 
  6  7  1  0  0  0  0 
  7  8  1  0  0  0  0 
  8  9  1  0  0  0  0 
  9 10  1  0  0  0  0 
 10 11  1  0  0  0  0 
 11 12  1  0  0  0  0 
 12 13  1  0  0  0  0 
 13 14  1  0  0  0  0 
M  END
> <Name>
TRIETHYLENE GLYCOL BUTYL ETHER

> <Source>
DSSTox2DMolFile

> <Tox>
-2.602

> <CAS>
143-22-6

$$$$

  CDK

  6  5  0  0  0  0  0  0  0  0999 V2000
    1.9943   -1.1509    0.0000 C   0  0  0  0  0  0  0  0  0  0  0  0
    3.3250   -1.1509    0.0000 O   0  0  0  0  0  0  0  0  0  0  0  0
    1.3307   -0.0000    0.0000 O   0  0  0  0  0  0  0  0  0  0  0  0
    1.3307   -2.3053    0.0000 C   0  0  0  0  0  0  0  0  0  0  0  0
    1.9943   -3.4563    0.0000 O   0  0  0  0  0  0  0  0  0  0  0  0
    0.0000   -2.3053    0.0000 O   0  0  0  0  0  0  0  0  0  0  0  0
  1  2  2  0  0  0  0 
  1  3  1  0  0  0  0 
  1  4  1  0  0  0  0 
  4  5  2  0  0  0  0 
  4  6  1  0  0  0  0 
M  END
> <Name>
OXALIC ACID

> <Source>
DSSTox2DMolFile

> <Tox>
-3.631

> <CAS>
144-62-7

$$$$

  CDK

 13 13  0  0  0  0  0  0  0  0999 V2000
    2.6555   -0.0000    0.0000 O   0  0  0  0  0  0  0  0  0  0  0  0
    1.9937   -1.1483    0.0000 C   0  0  0  0  0  0  0  0  0  0  0  0
    0.6619   -1.1483    0.0000 N   0  0  0  0  0  0  0  0  0  0  0  0
    2.6555   -2.3047    0.0000 N   0  0  0  0  0  0  0  0  0  0  0  0
    0.0000   -2.3047    0.0000 C   0  0  0  0  0  0  0  0  0  0  0  0
    0.0000   -0.0000    0.0000 C   0  0  0  0  0  0  0  0  0  0  0  0
    3.9873   -2.3047    0.0000 C   0  0  0  0  0  0  0  0  0  0  0  0
    4.6492   -1.1483    0.0000 C   0  0  0  0  0  0  0  0  0  0  0  0
    4.6492   -3.4530    0.0000 C   0  0  0  0  0  0  0  0  0  0  0  0
    5.9810   -1.1483    0.0000 C   0  0  0  0  0  0  0  0  0  0  0  0
    5.9810   -3.4530    0.0000 C   0  0  0  0  0  0  0  0  0  0  0  0
    6.6429   -2.3047    0.0000 C   0  0  0  0  0  0  0  0  0  0  0  0
    7.9746   -2.3047    0.0000 Cl  0  0  0  0  0  0  0  0  0  0  0  0
  1  2  2  0  0  0  0 
  2  3  1  0  0  0  0 
  2  4  1  0  0  0  0 
  3  5  1  0  0  0  0 
  3  6  1  0  0  0  0 
  4  7  1  0  0  0  0 
  7  8  2  0  0  0  0 
  7  9  1  0  0  0  0 
  8 10  1  0  0  0  0 
 11  9  2  0  0  0  0 
 10 12  2  0  0  0  0 
 12 11  1  0  0  0  0 
 12 13  1  0  0  0  0 
M  END
> <Name>
MONURON

> <Source>
DSSTox2DMolFile

> <Tox>
-6.298

> <CAS>
150-68-5

$$$$

  CDK

 10 10  0  0  0  0  0  0  0  0999 V2000
    1.9962   -1.1553    0.0000 O   0  0  0  0  0  0  0  0  0  0  0  0
    3.3270   -1.1553    0.0000 C   0  0  0  0  0  0  0  0  0  0  0  0
    1.3308   -0.0000    0.0000 C   0  0  0  0  0  0  0  0  0  0  0  0
    3.9850   -0.0000    0.0000 C   0  0  0  0  0  0  0  0  0  0  0  0
    3.9850   -2.3033    0.0000 C   0  0  0  0  0  0  0  0  0  0  0  0
    0.0000   -0.0000    0.0000 C   0  0  0  0  0  0  0  0  0  0  0  0
    5.3158   -0.0000    0.0000 C   0  0  0  0  0  0  0  0  0  0  0  0
    5.3158   -2.3033    0.0000 C   0  0  0  0  0  0  0  0  0  0  0  0
    5.9812   -1.1553    0.0000 C   0  0  0  0  0  0  0  0  0  0  0  0
    7.3120   -1.1553    0.0000 N   0  0  0  0  0  0  0  0  0  0  0  0
  1  2  1  0  0  0  0 
  1  3  1  0  0  0  0 
  2  4  2  0  0  0  0 
  2  5  1  0  0  0  0 
  3  6  1  0  0  0  0 
  4  7  1  0  0  0  0 
  8  5  2  0  0  0  0 
  7  9  2  0  0  0  0 
  9  8  1  0  0  0  0 
  9 10  1  0  0  0  0 
M  END
> <Name>
P-ETHOXYANILINE

> <Source>
DSSTox2DMolFile

> <Tox>
-1.979

> <CAS>
156-43-4

$$$$

  CDK

  5  6  0  0  0  0  0  0  0  0999 V2000
    2.0539    1.7606    1.4396 C   0  0  0  0  0  0  0  0  0  0  0  0
    1.0798    0.7414    0.9926 C   0  0  0  0  0  0  0  0  0  0  0  0
    3.4331    2.1782    1.1069 C   0  0  0  0  0  0  0  0  0  0  0  0
    3.0293    1.9362    2.5374 C   0  0  0  0  0  0  0  0  0  0  0  0
    0.6733    2.1857    1.1227 C   0  0  0  0  0  0  0  0  0  0  0  0
  1  2  1  0  0  0  0 
  1  3  1  0  0  0  0 
  4  1  1  0  0  0  0 
  5  1  1  0  0  0  0 
  2  5  1  0  0  0  0 
  3  4  1  0  0  0  0 
M  END
> <Name>
SPIROPENTANE

> <Source>
NIST3DMolFile

> <Tox>
2.661

> <CAS>
157-40-4

$$$$

  CDK

  5  6  0  0  0  0  0  0  0  0999 V2000
    1.9531    2.2668    0.7629 C   0  0  0  0  0  0  0  0  0  0  0  0
    1.9575    0.7432    0.8241 C   0  0  0  0  0  0  0  0  0  0  0  0
    3.4099    2.3073    1.2481 C   0  0  0  0  0  0  0  0  0  0  0  0
    1.0825    1.5410    1.7520 C   0  0  0  0  0  0  0  0  0  0  0  0
    3.4144    0.7504    1.3106 C   0  0  0  0  0  0  0  0  0  0  0  0
  2  1  1  0  0  0  0 
  1  3  1  0  0  0  0 
  4  1  1  0  0  0  0 
  5  2  1  0  0  0  0 
  2  4  1  0  0  0  0 
  3  5  1  0  0  0  0 
M  END
> <Name>
BICYCLO(2.1.0)PENTANE

> <Source>
NIST3DMolFile

> <Tox>
2.556

> <CAS>
185-94-4

$$$$

  CDK

 24 30  0  0  0  0  0  0  0  0999 V2000
    3.9061    2.4375    2.7723 C   0  0  0  0  0  0  0  0  0  0  0  0
    3.1209    3.0553    3.7823 C   0  0  0  0  0  0  0  0  0  0  0  0
    5.2525    2.8647    2.5511 C   0  0  0  0  0  0  0  0  0  0  0  0
    3.3648    1.4098    1.9894 C   0  0  0  0  0  0  0  0  0  0  0  0
    3.6704    4.0996    4.5732 C   0  0  0  0  0  0  0  0  0  0  0  0
    1.7977    2.6309    4.0031 C   0  0  0  0  0  0  0  0  0  0  0  0
    5.8052    3.9128    3.3438 C   0  0  0  0  0  0  0  0  0  0  0  0
    6.0303    2.2557    1.5591 C   0  0  0  0  0  0  0  0  0  0  0  0
    4.1703    0.8053    0.9800 C   0  0  0  0  0  0  0  0  0  0  0  0
    2.0237    0.9955    2.2254 C   0  0  0  0  0  0  0  0  0  0  0  0
    5.0144    4.5308    4.3543 C   0  0  0  0  0  0  0  0  0  0  0  0
    2.8985    4.7082    5.5735 C   0  0  0  0  0  0  0  0  0  0  0  0
    1.0293    3.2598    5.0241 C   0  0  0  0  0  0  0  0  0  0  0  0
    1.2662    1.5813    3.2000 C   0  0  0  0  0  0  0  0  0  0  0  0
    7.1263    4.3333    3.1284 C   0  0  0  0  0  0  0  0  0  0  0  0
    7.3715    2.6909    1.3581 C   0  0  0  0  0  0  0  0  0  0  0  0
    5.4570    1.2104    0.7747 C   0  0  0  0  0  0  0  0  0  0  0  0
    5.5600    5.5616    5.1338 C   0  0  0  0  0  0  0  0  0  0  0  0
    3.4697    5.7552    6.3557 C   0  0  0  0  0  0  0  0  0  0  0  0
    1.5606    4.2631    5.7835 C   0  0  0  0  0  0  0  0  0  0  0  0
    7.6609    5.3836    3.9310 C   0  0  0  0  0  0  0  0  0  0  0  0
    7.8987    3.6962    2.1173 C   0  0  0  0  0  0  0  0  0  0  0  0
    6.9019    5.9768    4.9024 C   0  0  0  0  0  0  0  0  0  0  0  0
    4.7548    6.1648    6.1426 C   0  0  0  0  0  0  0  0  0  0  0  0
  2  1  2  0  0  0  0 
  1  3  1  0  0  0  0 
  4  1  1  0  0  0  0 
  5  2  1  0  0  0  0 
  2  6  1  0  0  0  0 
  3  7  2  0  0  0  0 
  8  3  1  0  0  0  0 
  9  4  1  0  0  0  0 
  4 10  2  0  0  0  0 
 11  5  2  0  0  0  0 
  5 12  1  0  0  0  0 
  6 13  1  0  0  0  0 
 14  6  2  0  0  0  0 
  7 11  1  0  0  0  0 
 15  7  1  0  0  0  0 
 16  8  2  0  0  0  0 
  8 17  1  0  0  0  0 
 17  9  2  0  0  0  0 
 10 14  1  0  0  0  0 
 11 18  1  0  0  0  0 
 12 19  2  0  0  0  0 
 20 12  1  0  0  0  0 
 13 20  2  0  0  0  0 
 21 15  1  0  0  0  0 
 15 22  2  0  0  0  0 
 22 16  1  0  0  0  0 
 18 23  1  0  0  0  0 
 24 18  2  0  0  0  0 
 19 24  1  0  0  0  0 
 23 21  2  0  0  0  0 
M  END
> <Name>
CORONENE

> <Source>
NIST3DMolFile

> <Tox>
-11.664

> <CAS>
191-07-1

$$$$

  CDK

 20 24  0  0  0  0  0  0  0  0999 V2000
    3.4643   -4.6006    0.0000 C   0  0  0  0  0  0  0  0  0  0  0  0
    2.3280   -3.9285    0.0000 C   0  0  0  0  0  0  0  0  0  0  0  0
    3.4643   -5.9309    0.0000 C   0  0  0  0  0  0  0  0  0  0  0  0
    4.5868   -3.9285    0.0000 C   0  0  0  0  0  0  0  0  0  0  0  0
    2.3280   -2.5982    0.0000 C   0  0  0  0  0  0  0  0  0  0  0  0
    1.1363   -4.6006    0.0000 C   0  0  0  0  0  0  0  0  0  0  0  0
    4.5868   -6.5891    0.0000 C   0  0  0  0  0  0  0  0  0  0  0  0
    4.5868   -2.5982    0.0000 C   0  0  0  0  0  0  0  0  0  0  0  0
    5.7923   -4.6006    0.0000 C   0  0  0  0  0  0  0  0  0  0  0  0
    3.4643   -1.9192    0.0000 C   0  0  0  0  0  0  0  0  0  0  0  0
    1.1363   -1.9192    0.0000 C   0  0  0  0  0  0  0  0  0  0  0  0
    0.0000   -3.9285    0.0000 C   0  0  0  0  0  0  0  0  0  0  0  0
    5.7923   -5.9309    0.0000 C   0  0  0  0  0  0  0  0  0  0  0  0
    5.7231   -1.9192    0.0000 C   0  0  0  0  0  0  0  0  0  0  0  0
    6.9286   -3.9285    0.0000 C   0  0  0  0  0  0  0  0  0  0  0  0
    3.4643   -0.5889    0.0000 C   0  0  0  0  0  0  0  0  0  0  0  0
    0.0000   -2.5982    0.0000 C   0  0  0  0  0  0  0  0  0  0  0  0
    6.9286   -2.5982    0.0000 C   0  0  0  0  0  0  0  0  0  0  0  0
    5.7231   -0.5889    0.0000 C   0  0  0  0  0  0  0  0  0  0  0  0
    4.5868   -0.0000    0.0000 C   0  0  0  0  0  0  0  0  0  0  0  0
  1  2  2  0  0  0  0 
  1  3  1  0  0  0  0 
  1  4  1  0  0  0  0 
  2  5  1  0  0  0  0 
  2  6  1  0  0  0  0 
  3  7  2  0  0  0  0 
  4  8  2  0  0  0  0 
  4  9  1  0  0  0  0 
 10  5  2  0  0  0  0 
  5 11  1  0  0  0  0 
  6 12  2  0  0  0  0 
 13  7  1  0  0  0  0 
 10  8  1  0  0  0  0 
  8 14  1  0  0  0  0 
  9 15  1  0  0  0  0 
  9 13  2  0  0  0  0 
 10 16  1  0  0  0  0 
 11 17  2  0  0  0  0 
 17 12  1  0  0  0  0 
 14 18  1  0  0  0  0 
 14 19  2  0  0  0  0 
 15 18  2  0  0  0  0 
 16 20  2  0  0  0  0 
 19 20  1  0  0  0  0 
M  END
> <Name>
BENZO(E)PYRENE

> <Source>
DSSTox2DMolFile

> <Tox>
-8.244

> <CAS>
192-97-2

$$$$

  CDK

 18 21  0  0  0  0  0  0  0  0999 V2000
    3.9927   -2.3075    0.0000 C   0  0  0  0  0  0  0  0  0  0  0  0
    4.6495   -1.1580    0.0000 C   0  0  0  0  0  0  0  0  0  0  0  0
    4.6495   -3.4569    0.0000 C   0  0  0  0  0  0  0  0  0  0  0  0
    2.6618   -2.3075    0.0000 C   0  0  0  0  0  0  0  0  0  0  0  0
    5.9804   -1.1580    0.0000 C   0  0  0  0  0  0  0  0  0  0  0  0
    3.9927   -0.0000    0.0000 C   0  0  0  0  0  0  0  0  0  0  0  0
    5.9804   -3.4569    0.0000 C   0  0  0  0  0  0  0  0  0  0  0  0
    1.9963   -1.1580    0.0000 C   0  0  0  0  0  0  0  0  0  0  0  0
    1.9963   -3.4569    0.0000 C   0  0  0  0  0  0  0  0  0  0  0  0
    6.6458   -0.0000    0.0000 C   0  0  0  0  0  0  0  0  0  0  0  0
    6.6458   -2.3075    0.0000 C   0  0  0  0  0  0  0  0  0  0  0  0
    2.6618   -0.0000    0.0000 C   0  0  0  0  0  0  0  0  0  0  0  0
    0.6654   -1.1580    0.0000 C   0  0  0  0  0  0  0  0  0  0  0  0
    0.6654   -3.4569    0.0000 C   0  0  0  0  0  0  0  0  0  0  0  0
    7.9767   -0.0000    0.0000 C   0  0  0  0  0  0  0  0  0  0  0  0
    7.9767   -2.3075    0.0000 C   0  0  0  0  0  0  0  0  0  0  0  0
    0.0000   -2.3075    0.0000 C   0  0  0  0  0  0  0  0  0  0  0  0
    8.6422   -1.1580    0.0000 C   0  0  0  0  0  0  0  0  0  0  0  0
  1  2  2  0  0  0  0 
  1  3  1  0  0  0  0 
  1  4  1  0  0  0  0 
  2  5  1  0  0  0  0 
  2  6  1  0  0  0  0 
  7  3  2  0  0  0  0 
  8  4  2  0  0  0  0 
  4  9  1  0  0  0  0 
  5 10  1  0  0  0  0 
  5 11  2  0  0  0  0 
  6 12  2  0  0  0  0 
 11  7  1  0  0  0  0 
 12  8  1  0  0  0  0 
  8 13  1  0  0  0  0 
  9 14  2  0  0  0  0 
 10 15  2  0  0  0  0 
 16 11  1  0  0  0  0 
 17 13  2  0  0  0  0 
 14 17  1  0  0  0  0 
 15 18  1  0  0  0  0 
 18 16  2  0  0  0  0 
M  END
> <Name>
CHRYSENE

> <Source>
DSSTox2DMolFile

> <Tox>
-8.206

> <CAS>
218-01-9

$$$$

  CDK

 14 16  0  0  0  0  0  0  0  0999 V2000
   -2.4755    1.4035    0.0000 C   0  0  0  0  0  0  0  0  0  0  0  0
   -3.6276    0.6808    0.0000 C   0  0  0  0  0  0  0  0  0  0  0  0
   -1.2066    0.7411    0.0000 C   0  0  0  0  0  0  0  0  0  0  0  0
   -3.5945   -0.7450    0.0000 C   0  0  0  0  0  0  0  0  0  0  0  0
   -1.1756   -0.6842    0.0000 C   0  0  0  0  0  0  0  0  0  0  0  0
    0.0000    1.4448    0.0000 C   0  0  0  0  0  0  0  0  0  0  0  0
   -2.4122   -1.4174    0.0000 C   0  0  0  0  0  0  0  0  0  0  0  0
    0.0000   -1.3679    0.0000 N   0  0  0  0  0  0  0  0  0  0  0  0
    1.2067    0.7411    0.0000 C   0  0  0  0  0  0  0  0  0  0  0  0
    1.1757   -0.6842    0.0000 C   0  0  0  0  0  0  0  0  0  0  0  0
    2.4755    1.4036    0.0000 C   0  0  0  0  0  0  0  0  0  0  0  0
    2.4122   -1.4175    0.0000 C   0  0  0  0  0  0  0  0  0  0  0  0
    3.6275    0.6807    0.0000 C   0  0  0  0  0  0  0  0  0  0  0  0
    3.5944   -0.7450    0.0000 C   0  0  0  0  0  0  0  0  0  0  0  0
  1  2  1  0  0  0  0 
  1  3  2  0  0  0  0 
  2  4  2  0  0  0  0 
  5  3  1  0  0  0  0 
  6  3  1  0  0  0  0 
  4  7  1  0  0  0  0 
  7  5  2  0  0  0  0 
  5  8  1  0  0  0  0 
  9  6  2  0  0  0  0 
  8 10  2  0  0  0  0 
 10  9  1  0  0  0  0 
 11  9  1  0  0  0  0 
 10 12  1  0  0  0  0 
 13 11  2  0  0  0  0 
 12 14  2  0  0  0  0 
 14 13  1  0  0  0  0 
M  END
> <Name>
ACRIDINE

> <Source>
DougDB3DMolFile

> <Tox>
-3.870

> <CAS>
260-94-6

$$$$

  CDK

 14 16  0  0  0  0  0  0  0  0999 V2000
    3.4545   -0.0000    0.0000 O   0  0  0  0  0  0  0  0  0  0  0  0
    4.6083   -0.6633    0.0000 C   0  0  0  0  0  0  0  0  0  0  0  0
    2.3007   -0.6633    0.0000 C   0  0  0  0  0  0  0  0  0  0  0  0
    4.6083   -1.9967    0.0000 C   0  0  0  0  0  0  0  0  0  0  0  0
    5.7552   -0.0000    0.0000 C   0  0  0  0  0  0  0  0  0  0  0  0
    2.3007   -1.9967    0.0000 C   0  0  0  0  0  0  0  0  0  0  0  0
    1.1538   -0.0000    0.0000 C   0  0  0  0  0  0  0  0  0  0  0  0
    5.7552   -2.6600    0.0000 C   0  0  0  0  0  0  0  0  0  0  0  0
    3.4545   -2.6600    0.0000 O   0  0  0  0  0  0  0  0  0  0  0  0
    6.9090   -0.6633    0.0000 C   0  0  0  0  0  0  0  0  0  0  0  0
    1.1538   -2.6600    0.0000 C   0  0  0  0  0  0  0  0  0  0  0  0
    0.0000   -0.6633    0.0000 C   0  0  0  0  0  0  0  0  0  0  0  0
    6.9090   -1.9967    0.0000 C   0  0  0  0  0  0  0  0  0  0  0  0
    0.0000   -1.9967    0.0000 C   0  0  0  0  0  0  0  0  0  0  0  0
  1  2  1  0  0  0  0 
  1  3  1  0  0  0  0 
  2  4  2  0  0  0  0 
  2  5  1  0  0  0  0 
  6  3  1  0  0  0  0 
  7  3  2  0  0  0  0 
  4  8  1  0  0  0  0 
  4  9  1  0  0  0  0 
 10  5  2  0  0  0  0 
  9  6  1  0  0  0  0 
  6 11  2  0  0  0  0 
 12  7  1  0  0  0  0 
  8 13  2  0  0  0  0 
 13 10  1  0  0  0  0 
 11 14  1  0  0  0  0 
 14 12  2  0  0  0  0 
M  END
> <Name>
DIBENZO-P-DIOXIN

> <Source>
DSSTox2DMolFile

> <Tox>
-3.384

> <CAS>
262-12-4

$$$$

  CDK

  5  5  0  0  0  0  0  0  0  0999 V2000
    2.7957    0.9123    0.0230 C   0  0  0  0  0  0  0  0  0  0  0  0
    1.3514    0.8875    0.0653 C   0  0  0  0  0  0  0  0  0  0  0  0
    3.1972    2.1742    0.0000 N   0  0  0  0  0  0  0  0  0  0  0  0
    0.9672    2.2034    0.0647 C   0  0  0  0  0  0  0  0  0  0  0  0
    2.0555    3.0254    0.0256 O   0  0  0  0  0  0  0  0  0  0  0  0
  1  2  1  0  0  0  0 
  3  1  2  0  0  0  0 
  2  4  2  0  0  0  0 
  5  3  1  0  0  0  0 
  4  5  1  0  0  0  0 
M  END
> <Name>
ISO-OXAZOLE

> <Source>
NIST3DMolFile

> <Tox>
1.658

> <CAS>
288-14-2

$$$$

  CDK

 15 15  0  0  0  0  0  0  0  0999 V2000
    2.6138    2.6138    0.0000 P   0  0  0  0  0  0  0  0  0  0  0  0
    3.1165    3.4683    0.0000 O   0  0  0  0  0  0  0  0  0  0  0  0
    2.1112    1.7090    0.0000 O   0  0  0  0  0  0  0  0  0  0  0  0
    1.7593    3.1165    0.0000 O   0  0  0  0  0  0  0  0  0  0  0  0
    3.4683    2.1112    0.0000 S   0  0  0  0  0  0  0  0  0  0  0  0
    4.1218    3.4683    0.0000 C   0  0  0  0  0  0  0  0  0  0  0  0
    2.6138    0.8545    0.0000 C   0  0  0  0  0  0  0  0  0  0  0  0
    0.8545    2.6138    0.0000 C   0  0  0  0  0  0  0  0  0  0  0  0
    4.6245    4.3229    0.0000 C   0  0  0  0  0  0  0  0  0  0  0  0
    4.6245    2.6138    0.0000 N   0  0  0  0  0  0  0  0  0  0  0  0
    2.1112    0.0000    0.0000 C   0  0  0  0  0  0  0  0  0  0  0  0
    0.0000    3.1165    0.0000 C   0  0  0  0  0  0  0  0  0  0  0  0
    5.6298    4.3229    0.0000 N   0  0  0  0  0  0  0  0  0  0  0  0
    5.6298    2.6138    0.0000 C   0  0  0  0  0  0  0  0  0  0  0  0
    6.1324    3.4683    0.0000 C   0  0  0  0  0  0  0  0  0  0  0  0
  1  2  1  0  0  0  0 
  1  3  1  0  0  0  0 
  1  4  1  0  0  0  0 
  1  5  2  0  0  0  0 
  2  6  1  0  0  0  0 
  3  7  1  0  0  0  0 
  4  8  1  0  0  0  0 
  9  6  2  0  0  0  0 
  6 10  1  0  0  0  0 
  7 11  1  0  0  0  0 
  8 12  1  0  0  0  0 
 13  9  1  0  0  0  0 
 10 14  2  0  0  0  0 
 15 13  2  0  0  0  0 
 14 15  1  0  0  0  0 
M  END
> <Name>
THIONAZIN

> <Source>
NIST2DMolFile

> <Tox>
-2.523

> <CAS>
297-97-2

$$$$

  CDK

 12 12  0  0  0  0  0  0  0  0999 V2000
    2.3061   -1.3612    0.0000 C   0  0  0  0  0  0  0  0  0  0  0  0
    1.1477   -2.0285    0.0000 C   0  0  0  0  0  0  0  0  0  0  0  0
    3.4378   -2.0285    0.0000 C   0  0  0  0  0  0  0  0  0  0  0  0
    2.3061   -0.0000    0.0000 Cl  0  0  0  0  0  0  0  0  0  0  0  0
    1.1477   -3.3364    0.0000 C   0  0  0  0  0  0  0  0  0  0  0  0
    0.0000   -1.3612    0.0000 Cl  0  0  0  0  0  0  0  0  0  0  0  0
    3.4378   -3.3364    0.0000 C   0  0  0  0  0  0  0  0  0  0  0  0
    4.6068   -1.3612    0.0000 Cl  0  0  0  0  0  0  0  0  0  0  0  0
    2.3061   -4.0036    0.0000 C   0  0  0  0  0  0  0  0  0  0  0  0
    0.0000   -4.0036    0.0000 Cl  0  0  0  0  0  0  0  0  0  0  0  0
    4.6068   -4.0036    0.0000 Cl  0  0  0  0  0  0  0  0  0  0  0  0
    2.3061   -5.3382    0.0000 Cl  0  0  0  0  0  0  0  0  0  0  0  0
  1  2  1  0  0  0  0 
  1  3  1  0  0  0  0 
  1  4  1  6  0  0  0 
  2  5  1  0  0  0  0 
  2  6  1  1  0  0  0 
  3  7  1  0  0  0  0 
  3  8  1  6  0  0  0 
  5  9  1  0  0  0  0 
  5 10  1  6  0  0  0 
  7 11  1  6  0  0  0 
  7  9  1  0  0  0  0 
  9 12  1  1  0  0  0 
M  END
> <Name>
DELTA-HEXACHLOROCYCLOHEXANE

> <Source>
DSSTox2DMolFile

> <Tox>
-4.453

> <CAS>
319-86-8

$$$$

  CDK

 12 12  0  0  0  0  0  0  0  0999 V2000
    1.3303   -5.3211    0.0000 C   0  0  0  0  0  0  0  0  0  0  0  0
    0.1796   -4.6626    0.0000 C   0  0  0  0  0  0  0  0  0  0  0  0
    2.4810   -4.6626    0.0000 C   0  0  0  0  0  0  0  0  0  0  0  0
    1.3303   -6.6514    0.0000 Cl  0  0  0  0  0  0  0  0  0  0  0  0
    0.1796   -3.3324    0.0000 C   0  0  0  0  0  0  0  0  0  0  0  0
    2.4810   -3.3324    0.0000 C   0  0  0  0  0  0  0  0  0  0  0  0
    3.6383   -5.3211    0.0000 Cl  0  0  0  0  0  0  0  0  0  0  0  0
    1.3303   -2.6606    0.0000 C   0  0  0  0  0  0  0  0  0  0  0  0
    1.3303   -1.3303    0.0000 C   0  0  0  0  0  0  0  0  0  0  0  0
    1.3303   -0.0000    0.0000 F   0  0  0  0  0  0  0  0  0  0  0  0
    0.0000   -1.3303    0.0000 F   0  0  0  0  0  0  0  0  0  0  0  0
    2.6606   -1.3303    0.0000 F   0  0  0  0  0  0  0  0  0  0  0  0
  1  2  2  0  0  0  0 
  1  3  1  0  0  0  0 
  1  4  1  0  0  0  0 
  2  5  1  0  0  0  0 
  6  3  2  0  0  0  0 
  3  7  1  0  0  0  0 
  5  8  2  0  0  0  0 
  8  6  1  0  0  0  0 
  8  9  1  0  0  0  0 
  9 10  1  0  0  0  0 
  9 11  1  0  0  0  0 
  9 12  1  0  0  0  0 
M  END
> <Name>
3,4-DICHLOROBENZOTRIFLUORIDE

> <Source>
DSSTox2DMolFile

> <Tox>
0.373

> <CAS>
328-84-7

$$$$

  CDK

 23 22  0  0  0  0  0  0  0  0999 V2000
    4.3430    2.8785    0.0000 C   0  0  0  0  0  0  0  0  0  0  0  0
    3.4845    2.3735    0.0000 C   0  0  0  0  0  0  0  0  0  0  0  0
    5.2520    3.3835    0.0000 C   0  0  0  0  0  0  0  0  0  0  0  0
    3.8380    3.7370    0.0000 F   0  0  0  0  0  0  0  0  0  0  0  0
    4.8480    2.0200    0.0000 F   0  0  0  0  0  0  0  0  0  0  0  0
    2.6260    1.8685    0.0000 C   0  0  0  0  0  0  0  0  0  0  0  0
    3.9895    1.5150    0.0000 F   0  0  0  0  0  0  0  0  0  0  0  0
    2.9795    3.2320    0.0000 F   0  0  0  0  0  0  0  0  0  0  0  0
    6.1105    3.8885    0.0000 C   0  0  0  0  0  0  0  0  0  0  0  0
    4.7470    4.2420    0.0000 F   0  0  0  0  0  0  0  0  0  0  0  0
    5.7570    2.5250    0.0000 F   0  0  0  0  0  0  0  0  0  0  0  0
    1.7170    1.3635    0.0000 C   0  0  0  0  0  0  0  0  0  0  0  0
    3.1310    1.0100    0.0000 F   0  0  0  0  0  0  0  0  0  0  0  0
    2.1210    2.7270    0.0000 F   0  0  0  0  0  0  0  0  0  0  0  0
    6.6155    3.0300    0.0000 F   0  0  0  0  0  0  0  0  0  0  0  0
    5.6055    4.7470    0.0000 F   0  0  0  0  0  0  0  0  0  0  0  0
    6.9690    4.3935    0.0000 F   0  0  0  0  0  0  0  0  0  0  0  0
    0.8585    0.8585    0.0000 C   0  0  0  0  0  0  0  0  0  0  0  0
    2.2220    0.5050    0.0000 F   0  0  0  0  0  0  0  0  0  0  0  0
    1.2120    2.2220    0.0000 F   0  0  0  0  0  0  0  0  0  0  0  0
    0.3535    1.7170    0.0000 F   0  0  0  0  0  0  0  0  0  0  0  0
    1.3635    0.0000    0.0000 F   0  0  0  0  0  0  0  0  0  0  0  0
    0.0000    0.3535    0.0000 F   0  0  0  0  0  0  0  0  0  0  0  0
  1  2  1  0  0  0  0 
  1  3  1  0  0  0  0 
  1  4  1  0  0  0  0 
  1  5  1  0  0  0  0 
  2  6  1  0  0  0  0 
  2  7  1  0  0  0  0 
  2  8  1  0  0  0  0 
  3  9  1  0  0  0  0 
  3 10  1  0  0  0  0 
  3 11  1  0  0  0  0 
  6 12  1  0  0  0  0 
  6 13  1  0  0  0  0 
  6 14  1  0  0  0  0 
  9 15  1  0  0  0  0 
  9 16  1  0  0  0  0 
  9 17  1  0  0  0  0 
 12 18  1  0  0  0  0 
 12 19  1  0  0  0  0 
 12 20  1  0  0  0  0 
 18 21  1  0  0  0  0 
 18 22  1  0  0  0  0 
 18 23  1  0  0  0  0 
M  END
> <Name>
PERFLUOROHEPTANE

> <Source>
NIST2DMolFile

> <Tox>
1.883

> <CAS>
335-57-9

$$$$

  CDK

  8  8  0  0  0  0  0  0  0  0999 V2000
    1.5049    2.6084    0.0000 C   0  0  0  0  0  0  0  0  0  0  0  0
    1.0032    1.7557    0.0000 C   0  0  0  0  0  0  0  0  0  0  0  0
    2.5081    2.6084    0.0000 C   0  0  0  0  0  0  0  0  0  0  0  0
    1.5049    0.9029    0.0000 C   0  0  0  0  0  0  0  0  0  0  0  0
    0.0000    1.7557    0.0000 C   0  0  0  0  0  0  0  0  0  0  0  0
    3.0097    1.7557    0.0000 C   0  0  0  0  0  0  0  0  0  0  0  0
    2.5081    0.9029    0.0000 C   0  0  0  0  0  0  0  0  0  0  0  0
    3.0097    0.0000    0.0000 F   0  0  0  0  0  0  0  0  0  0  0  0
  1  2  2  0  0  0  0 
  3  1  1  0  0  0  0 
  2  4  1  0  0  0  0 
  2  5  1  0  0  0  0 
  6  3  2  0  0  0  0 
  4  7  2  0  0  0  0 
  7  6  1  0  0  0  0 
  7  8  1  0  0  0  0 
M  END
> <Name>
M-FLUOROTOLUENE

> <Source>
NIST2DMolFile

> <Tox>
1.338

> <CAS>
352-70-5

$$$$

  CDK

  3  2  0  0  0  0  0  0  0  0999 V2000
    0.0000    0.5070    0.0000 C   0  0  0  0  0  0  0  0  0  0  0  0
    0.8619    0.0000    0.0000 C   0  0  0  0  0  0  0  0  0  0  0  0
    1.7239    0.5070    0.0000 F   0  0  0  0  0  0  0  0  0  0  0  0
  1  2  1  0  0  0  0 
  2  3  1  0  0  0  0 
M  END
> <Name>
FLUOROETHANE

> <Source>
NIST2DMolFile

> <Tox>
3.835

> <CAS>
353-36-6

$$$$

  CDK

  7  6  0  0  0  0  0  0  0  0999 V2000
    1.9964   -0.0000    0.0000 F   0  0  0  0  0  0  0  0  0  0  0  0
    1.9964   -1.3309    0.0000 C   0  0  0  0  0  0  0  0  0  0  0  0
    3.3274   -1.3309    0.0000 F   0  0  0  0  0  0  0  0  0  0  0  0
    1.9964   -2.6586    0.0000 F   0  0  0  0  0  0  0  0  0  0  0  0
    0.6688   -1.3309    0.0000 C   0  0  0  0  0  0  0  0  0  0  0  0
    0.0000   -2.4822    0.0000 F   0  0  0  0  0  0  0  0  0  0  0  0
    0.0000   -0.1797    0.0000 F   0  0  0  0  0  0  0  0  0  0  0  0
  1  2  1  0  0  0  0 
  3  2  1  0  0  0  0 
  4  2  1  0  0  0  0 
  2  5  1  0  0  0  0 
  6  5  1  0  0  0  0 
  7  5  1  0  0  0  0 
M  END
> <Name>
1,1,1,2,2-PENTAFLUOROETHANE

> <Source>
DSSTox2DMolFile

> <Tox>
4.021

> <CAS>
354-33-6

$$$$

  CDK

  8  7  0  0  0  0  0  0  0  0999 V2000
    1.3283   -1.3323    0.0000 C   0  0  0  0  0  0  0  0  0  0  0  0
    2.6605   -1.3323    0.0000 C   0  0  0  0  0  0  0  0  0  0  0  0
    1.3283   -0.0000    0.0000 Cl  0  0  0  0  0  0  0  0  0  0  0  0
    0.0000   -1.3323    0.0000 Cl  0  0  0  0  0  0  0  0  0  0  0  0
    1.3123   -2.6605    0.0000 Cl  0  0  0  0  0  0  0  0  0  0  0  0
    2.6446   -2.6605    0.0000 F   0  0  0  0  0  0  0  0  0  0  0  0
    2.6605   -0.0000    0.0000 F   0  0  0  0  0  0  0  0  0  0  0  0
    3.9888   -1.3323    0.0000 F   0  0  0  0  0  0  0  0  0  0  0  0
  1  2  1  0  0  0  0 
  1  3  1  0  0  0  0 
  1  4  1  0  0  0  0 
  1  5  1  0  0  0  0 
  2  6  1  0  0  0  0 
  2  7  1  0  0  0  0 
  2  8  1  0  0  0  0 
M  END
> <Name>
1,1,1-TRICHLORO-2,2,2-TRIFLUOROETHANE

> <Source>
DSSTox2DMolFile

> <Tox>
2.556

> <CAS>
354-58-5

$$$$

  CDK

 21 21  0  0  0  0  0  0  0  0999 V2000
    0.7134    0.7134    0.0000 C   0  0  0  0  0  0  0  0  0  0  0  0
    1.4269    0.0951    0.0000 F   0  0  0  0  0  0  0  0  0  0  0  0
    0.0000    1.3318    0.0000 F   0  0  0  0  0  0  0  0  0  0  0  0
    0.0951    0.0000    0.0000 F   0  0  0  0  0  0  0  0  0  0  0  0
    2.0452    2.3306    0.0000 C   0  0  0  0  0  0  0  0  0  0  0  0
    1.2366    2.8062    0.0000 F   0  0  0  0  0  0  0  0  0  0  0  0
    2.5208    3.1392    0.0000 C   0  0  0  0  0  0  0  0  0  0  0  0
    2.5208    1.4745    0.0000 C   0  0  0  0  0  0  0  0  0  0  0  0
    1.7123    3.6148    0.0000 F   0  0  0  0  0  0  0  0  0  0  0  0
    2.5208    4.0904    0.0000 F   0  0  0  0  0  0  0  0  0  0  0  0
    3.4721    3.1392    0.0000 C   0  0  0  0  0  0  0  0  0  0  0  0
    1.7123    0.9988    0.0000 F   0  0  0  0  0  0  0  0  0  0  0  0
    2.6635    0.5708    0.0000 F   0  0  0  0  0  0  0  0  0  0  0  0
    3.4721    1.4745    0.0000 C   0  0  0  0  0  0  0  0  0  0  0  0
    3.4721    4.0904    0.0000 F   0  0  0  0  0  0  0  0  0  0  0  0
    4.2807    3.6148    0.0000 F   0  0  0  0  0  0  0  0  0  0  0  0
    3.9477    2.3306    0.0000 C   0  0  0  0  0  0  0  0  0  0  0  0
    3.4721    0.5232    0.0000 F   0  0  0  0  0  0  0  0  0  0  0  0
    4.2807    0.9988    0.0000 F   0  0  0  0  0  0  0  0  0  0  0  0
    4.7563    1.8550    0.0000 F   0  0  0  0  0  0  0  0  0  0  0  0
    4.7563    2.8062    0.0000 F   0  0  0  0  0  0  0  0  0  0  0  0
  1  2  1  0  0  0  0 
  1  3  1  0  0  0  0 
  1  4  1  0  0  0  0 
  1  5  1  0  0  0  0 
  5  6  1  0  0  0  0 
  7  5  1  0  0  0  0 
  5  8  1  0  0  0  0 
  7  9  1  0  0  0  0 
  7 10  1  0  0  0  0 
 11  7  1  0  0  0  0 
  8 12  1  0  0  0  0 
  8 13  1  0  0  0  0 
  8 14  1  0  0  0  0 
 11 15  1  0  0  0  0 
 11 16  1  0  0  0  0 
 17 11  1  0  0  0  0 
 14 17  1  0  0  0  0 
 14 18  1  0  0  0  0 
 14 19  1  0  0  0  0 
 17 20  1  0  0  0  0 
 17 21  1  0  0  0  0 
M  END
> <Name>
PERFLUOROMETHYLCYCLOHEXANE

> <Source>
NIST2DMolFile

> <Tox>
2.025

> <CAS>
355-02-2

$$$$

  CDK

 12 12  0  0  0  0  0  0  0  0999 V2000
    1.8693   -1.8121    0.5406 Cl  0  0  0  0  0  0  0  0  0  0  0  0
    0.6938   -0.7366   -0.2919 C   0  0  0  0  0  0  0  0  0  0  0  0
    0.7512   -1.0020   -1.6226 F   0  0  0  0  0  0  0  0  0  0  0  0
   -0.7319   -0.6984    0.2967 C   0  0  0  0  0  0  0  0  0  0  0  0
    0.7909    0.7658    0.0464 C   0  0  0  0  0  0  0  0  0  0  0  0
   -1.9650   -1.7089   -0.5335 Cl  0  0  0  0  0  0  0  0  0  0  0  0
   -0.8031   -0.9586    1.6278 F   0  0  0  0  0  0  0  0  0  0  0  0
   -0.7489    0.8067   -0.0420 C   0  0  0  0  0  0  0  0  0  0  0  0
    1.4446    1.5253   -0.8636 F   0  0  0  0  0  0  0  0  0  0  0  0
    1.3148    1.0787    1.2524 F   0  0  0  0  0  0  0  0  0  0  0  0
   -1.2524    1.1226   -1.2583 F   0  0  0  0  0  0  0  0  0  0  0  0
   -1.3632    1.6175    0.8482 F   0  0  0  0  0  0  0  0  0  0  0  0
  1  2  1  0  0  0  0 
  3  2  1  0  0  0  0 
  2  4  1  0  0  0  0 
  2  5  1  0  0  0  0 
  6  4  1  0  0  0  0 
  7  4  1  0  0  0  0 
  4  8  1  0  0  0  0 
  9  5  1  0  0  0  0 
 10  5  1  0  0  0  0 
  5  8  1  0  0  0  0 
 11  8  1  0  0  0  0 
 12  8  1  0  0  0  0 
M  END
> <Name>
1,2-Dichloro-1,2,3,3,4,4-hexafluorocyclobutane

> <Source>
Chemidplus3DMolFile

> <Tox>
2.362

> <CAS>
356-18-3

$$$$

  CDK

  4  3  0  0  0  0  0  0  0  0999 V2000
   -0.7490    0.5859    0.2988 C   0  0  0  0  0  0  0  0  0  0  0  0
    0.6726    0.5967   -0.2921 C   0  0  0  0  0  0  0  0  0  0  0  0
   -1.5125   -0.4931   -0.1580 O   0  0  0  0  0  0  0  0  0  0  0  0
    1.3871   -0.4832    0.1221 F   0  0  0  0  0  0  0  0  0  0  0  0
  1  2  1  0  0  0  0 
  1  3  1  0  0  0  0 
  2  4  1  0  0  0  0 
M  END
> <Name>
2-FLUOROETHANOL

> <Source>
DougDB3DMolFile

> <Tox>
1.328

> <CAS>
371-62-0

$$$$

  CDK

 13 12  0  0  0  0  0  0  0  0999 V2000
    2.5504    1.8503    0.0000 C   0  0  0  0  0  0  0  0  0  0  0  0
    1.7003    1.3502    0.0000 C   0  0  0  0  0  0  0  0  0  0  0  0
    3.0505    1.0002    0.0000 F   0  0  0  0  0  0  0  0  0  0  0  0
    2.0503    2.7505    0.0000 F   0  0  0  0  0  0  0  0  0  0  0  0
    3.4506    2.3504    0.0000 C   0  0  0  0  0  0  0  0  0  0  0  0
    1.2002    2.2504    0.0000 F   0  0  0  0  0  0  0  0  0  0  0  0
    2.2004    0.5001    0.0000 F   0  0  0  0  0  0  0  0  0  0  0  0
    0.8501    0.8501    0.0000 C   0  0  0  0  0  0  0  0  0  0  0  0
    3.4506    3.3506    0.0000 O   0  0  0  0  0  0  0  0  0  0  0  0
    4.3007    1.8503    0.0000 O   0  0  0  0  0  0  0  0  0  0  0  0
    0.4001    1.7503    0.0000 F   0  0  0  0  0  0  0  0  0  0  0  0
    1.3502    0.0000    0.0000 F   0  0  0  0  0  0  0  0  0  0  0  0
    0.0000    0.3501    0.0000 F   0  0  0  0  0  0  0  0  0  0  0  0
  1  2  1  0  0  0  0 
  1  3  1  0  0  0  0 
  1  4  1  0  0  0  0 
  1  5  1  0  0  0  0 
  2  6  1  0  0  0  0 
  2  7  1  0  0  0  0 
  2  8  1  0  0  0  0 
  5  9  2  0  0  0  0 
  5 10  1  0  0  0  0 
  8 11  1  0  0  0  0 
  8 12  1  0  0  0  0 
  8 13  1  0  0  0  0 
M  END
> <Name>
Butanoic acid, heptafluoro-

> <Source>
NIST2DMolFile

> <Tox>
0.804

> <CAS>
375-22-4

$$$$

  CDK

  3  3  0  0  0  0  0  0  0  0999 V2000
    0.0000    0.4435    0.0000 S   0  0  0  0  0  0  0  0  0  0  0  0
   -1.2790   -0.4607    0.0000 C   0  0  0  0  0  0  0  0  0  0  0  0
    1.2790   -0.4607    0.0000 C   0  0  0  0  0  0  0  0  0  0  0  0
  1  2  1  0  0  0  0 
  1  3  1  0  0  0  0 
  2  3  1  0  0  0  0 
M  END
> <Name>
ETHYLENE SULFIDE

> <Source>
DougDB3DMolFile

> <Tox>
2.398

> <CAS>
420-12-2

$$$$

  CDK

 10  9  0  0  0  0  0  0  0  0999 V2000
    0.1610   -1.1173    0.7625 F   0  0  0  0  0  0  0  0  0  0  0  0
    0.0000    0.0000    0.0000 C   0  0  0  0  0  0  0  0  0  0  0  0
   -1.2272    0.7304    0.4905 C   0  0  0  0  0  0  0  0  0  0  0  0
   -0.1028   -0.4280   -1.4445 C   0  0  0  0  0  0  0  0  0  0  0  0
   -1.4096    1.8875   -0.1811 F   0  0  0  0  0  0  0  0  0  0  0  0
   -1.1057    1.0350    1.8012 F   0  0  0  0  0  0  0  0  0  0  0  0
   -2.3413   -0.0164    0.3420 F   0  0  0  0  0  0  0  0  0  0  0  0
    0.9773   -1.1396   -1.8288 F   0  0  0  0  0  0  0  0  0  0  0  0
   -1.1981   -1.1899   -1.6529 F   0  0  0  0  0  0  0  0  0  0  0  0
   -0.1968    0.6502   -2.2534 F   0  0  0  0  0  0  0  0  0  0  0  0
  1  2  1  0  0  0  0 
  2  3  1  0  0  0  0 
  2  4  1  0  0  0  0 
  5  3  1  0  0  0  0 
  6  3  1  0  0  0  0 
  7  3  1  0  0  0  0 
  8  4  1  0  0  0  0 
  9  4  1  0  0  0  0 
 10  4  1  0  0  0  0 
M  END
> <Name>
HFC-227ea (heptafluoropropane)

> <Source>
Chemidplus3DMolFile

> <Tox>
3.533

> <CAS>
431-89-0

$$$$

  CDK

  7  6  0  0  0  0  0  0  0  0999 V2000
    0.0000    0.0000    0.0000 C   0  0  0  0  0  0  0  0  0  0  0  0
    0.8557    0.5033    0.0000 C   0  0  0  0  0  0  0  0  0  0  0  0
    1.7113    0.0000    0.0000 O   0  0  0  0  0  0  0  0  0  0  0  0
    2.6173    0.5033    0.0000 C   0  0  0  0  0  0  0  0  0  0  0  0
    3.4730    0.0000    0.0000 O   0  0  0  0  0  0  0  0  0  0  0  0
    4.3286    0.5033    0.0000 C   0  0  0  0  0  0  0  0  0  0  0  0
    5.1843    0.0000    0.0000 C   0  0  0  0  0  0  0  0  0  0  0  0
  1  2  1  0  0  0  0 
  2  3  1  0  0  0  0 
  3  4  1  0  0  0  0 
  4  5  1  0  0  0  0 
  5  6  1  0  0  0  0 
  6  7  1  0  0  0  0 
M  END
> <Name>
DIETHOXYMETHANE

> <Source>
NIST2DMolFile

> <Tox>
1.533

> <CAS>
462-95-3

$$$$

  CDK

  9  8  0  0  0  0  0  0  0  0999 V2000
    0.0000    0.0000    0.0000 C   0  0  0  0  0  0  0  0  0  0  0  0
    0.8786    0.4652    0.0000 C   0  0  0  0  0  0  0  0  0  0  0  0
    1.7573    0.0000    0.0000 C   0  0  0  0  0  0  0  0  0  0  0  0
    2.6876    0.4652    0.0000 C   0  0  0  0  0  0  0  0  0  0  0  0
    3.5146    0.0000    0.0000 C   0  0  0  0  0  0  0  0  0  0  0  0
    4.3932    0.4652    0.0000 C   0  0  0  0  0  0  0  0  0  0  0  0
    5.3236    0.0000    0.0000 C   0  0  0  0  0  0  0  0  0  0  0  0
    6.2022    0.4652    0.0000 C   0  0  0  0  0  0  0  0  0  0  0  0
    7.0808    0.0000    0.0000 F   0  0  0  0  0  0  0  0  0  0  0  0
  1  2  1  0  0  0  0 
  2  3  1  0  0  0  0 
  3  4  1  0  0  0  0 
  4  5  1  0  0  0  0 
  5  6  1  0  0  0  0 
  6  7  1  0  0  0  0 
  7  8  1  0  0  0  0 
  8  9  1  0  0  0  0 
M  END
> <Name>
1-FLUOROOCTANE

> <Source>
NIST2DMolFile

> <Tox>
0.772

> <CAS>
463-11-6

$$$$

  CDK

  3  2  0  0  0  0  0  0  0  0999 V2000
   -1.3781    0.0783    2.8484 O   0  0  0  0  0  0  0  0  0  0  0  0
   -0.6474    0.2731    1.9479 C   0  0  0  0  0  0  0  0  0  0  0  0
    0.1585    0.4885    0.9540 C   0  0  0  0  0  0  0  0  0  0  0  0
  1  2  2  0  0  0  0 
  3  2  2  0  0  0  0 
M  END
> <Name>
KETENE

> <Source>
Chemidplus3DMolFile

> <Tox>
4.017

> <CAS>
463-51-4

$$$$

  CDK

  5  4  0  0  0  0  0  0  0  0999 V2000
    0.4805   -0.0000    0.0000 C   0  0  0  0  0  0  0  0  0  0  0  0
    1.1550   -1.1550    0.0000 C   0  0  0  0  0  0  0  0  0  0  0  0
    2.2938   -0.4967    0.0000 C   0  0  0  0  0  0  0  0  0  0  0  0
    0.0000   -1.8295    0.0000 C   0  0  0  0  0  0  0  0  0  0  0  0
    1.8134   -2.3100    0.0000 C   0  0  0  0  0  0  0  0  0  0  0  0
  1  2  1  0  0  0  0 
  2  3  1  0  0  0  0 
  2  4  1  0  0  0  0 
  2  5  1  0  0  0  0 
M  END
> <Name>
2,2-DIMETHYLPROPANE

> <Source>
DSSTox2DMolFile

> <Tox>
3.111

> <CAS>
463-82-1

$$$$

  CDK

  6  5  0  0  0  0  0  0  0  0999 V2000
    0.0000    0.0000    0.0000 N   0  0  0  0  0  0  0  0  0  0  0  0
   -0.0400   -0.7600    1.1200 C   0  0  0  0  0  0  0  0  0  0  0  0
    0.6600   -2.0400    1.1400 C   0  0  0  0  0  0  0  0  0  0  0  0
   -0.6400   -0.3800    2.1000 O   0  0  0  0  0  0  0  0  0  0  0  0
    0.7800   -2.7400   -0.0400 N   0  0  0  0  0  0  0  0  0  0  0  0
    1.1200   -2.4800    2.1600 O   0  0  0  0  0  0  0  0  0  0  0  0
  1  2  1  0  0  0  0 
  2  3  1  0  0  0  0 
  2  4  2  0  0  0  0 
  3  5  1  0  0  0  0 
  3  6  2  0  0  0  0 
M  END
> <Name>
OXAMIDE

> <Source>
NIH3DMolFile

> <Tox>
-7.197

> <CAS>
471-46-5

$$$$

  CDK

  9 10  0  0  0  0  0  0  0  0999 V2000
    0.1843    0.7016    0.0000 C   0  0  0  0  0  0  0  0  0  0  0  0
    0.1844   -0.7018    0.0001 C   0  0  0  0  0  0  0  0  0  0  0  0
    1.5756    1.2398    0.0002 C   0  0  0  0  0  0  0  0  0  0  0  0
   -1.0062    1.4090   -0.0001 C   0  0  0  0  0  0  0  0  0  0  0  0
    1.5759   -1.2397   -0.0002 C   0  0  0  0  0  0  0  0  0  0  0  0
   -1.0063   -1.4090    0.0001 C   0  0  0  0  0  0  0  0  0  0  0  0
    2.4858    0.0001    0.0001 C   0  0  0  0  0  0  0  0  0  0  0  0
   -2.2058    0.6952   -0.0001 C   0  0  0  0  0  0  0  0  0  0  0  0
   -2.2058   -0.6951    0.0001 C   0  0  0  0  0  0  0  0  0  0  0  0
  1  2  1  0  0  0  0 
  1  3  1  0  0  0  0 
  1  4  2  0  0  0  0 
  2  5  1  0  0  0  0 
  2  6  2  0  0  0  0 
  3  7  1  0  0  0  0 
  4  8  1  0  0  0  0 
  5  7  1  0  0  0  0 
  6  9  1  0  0  0  0 
  8  9  2  0  0  0  0 
M  END
> <Name>
INDANE

> <Source>
DougDB3DMolFile

> <Tox>
0.167

> <CAS>
496-11-7

$$$$

  CDK

 11 12  0  0  0  0  0  0  0  0999 V2000
   -1.2525    0.3308   -1.2717 O   0  0  0  0  0  0  0  0  0  0  0  0
   -1.2766   -0.8248   -0.4257 C   0  0  0  0  0  0  0  0  0  0  0  0
   -0.6891    1.3138   -0.3913 C   0  0  0  0  0  0  0  0  0  0  0  0
    0.1629   -1.3591   -0.3266 C   0  0  0  0  0  0  0  0  0  0  0  0
   -1.8135   -0.2237    0.8606 C   0  0  0  0  0  0  0  0  0  0  0  0
   -1.2198    1.0824    0.9258 O   0  0  0  0  0  0  0  0  0  0  0  0
    0.8256    1.0843   -0.3627 C   0  0  0  0  0  0  0  0  0  0  0  0
    0.2087   -2.5331    0.4756 O   0  0  0  0  0  0  0  0  0  0  0  0
    1.1391   -0.3037    0.2180 C   0  0  0  0  0  0  0  0  0  0  0  0
    1.4399    2.0912    0.4330 O   0  0  0  0  0  0  0  0  0  0  0  0
    2.4754   -0.6580   -0.1350 O   0  0  0  0  0  0  0  0  0  0  0  0
  1  2  1  0  0  0  0 
  1  3  1  0  0  0  0 
  2  4  1  0  0  0  0 
  2  5  1  0  0  0  0 
  6  3  1  0  0  0  0 
  7  3  1  0  0  0  0 
  8  4  1  0  0  0  0 
  4  9  1  0  0  0  0 
  6  5  1  0  0  0  0 
 10  7  1  0  0  0  0 
  9  7  1  0  0  0  0 
 11  9  1  0  0  0  0 
M  END
> <Name>
Levoglucosan

> <Source>
Chemidplus3DMolFile

> <Tox>
-7.125

> <CAS>
498-07-7

$$$$

  CDK

 10  9  0  0  0  0  0  0  0  0999 V2000
    3.4535   -0.0000    0.0000 O   0  0  0  0  0  0  0  0  0  0  0  0
    3.4535   -1.3330    0.0000 C   0  0  0  0  0  0  0  0  0  0  0  0
    4.6070   -1.9961    0.0000 C   0  0  0  0  0  0  0  0  0  0  0  0
    2.3000   -1.9961    0.0000 C   0  0  0  0  0  0  0  0  0  0  0  0
    5.7535   -1.3330    0.0000 C   0  0  0  0  0  0  0  0  0  0  0  0
    1.1535   -1.3330    0.0000 C   0  0  0  0  0  0  0  0  0  0  0  0
    6.9070   -1.9961    0.0000 C   0  0  0  0  0  0  0  0  0  0  0  0
    5.7535   -0.0000    0.0000 C   0  0  0  0  0  0  0  0  0  0  0  0
    0.0000   -1.9961    0.0000 C   0  0  0  0  0  0  0  0  0  0  0  0
    1.1535   -0.0000    0.0000 C   0  0  0  0  0  0  0  0  0  0  0  0
  1  2  2  0  0  0  0 
  2  3  1  0  0  0  0 
  2  4  1  0  0  0  0 
  3  5  2  0  0  0  0 
  4  6  2  0  0  0  0 
  5  7  1  0  0  0  0 
  5  8  1  0  0  0  0 
  6  9  1  0  0  0  0 
  6 10  1  0  0  0  0 
M  END
> <Name>
PHORONE

> <Source>
DSSTox2DMolFile

> <Tox>
-0.558

> <CAS>
504-20-1

$$$$

  CDK

  7  6  0  0  0  0  0  0  0  0999 V2000
    0.0000    0.0503    0.0000 Cl  0  0  0  0  0  0  0  0  0  0  0  0
    0.8550    0.5533    0.0000 C   0  0  0  0  0  0  0  0  0  0  0  0
    1.7603    0.0000    0.0000 C   0  0  0  0  0  0  0  0  0  0  0  0
    2.6154    0.5533    0.0000 S   0  0  0  0  0  0  0  0  0  0  0  0
    3.4201    0.0503    0.0000 C   0  0  0  0  0  0  0  0  0  0  0  0
    4.3254    0.5030    0.0000 C   0  0  0  0  0  0  0  0  0  0  0  0
    5.1805    0.0503    0.0000 Cl  0  0  0  0  0  0  0  0  0  0  0  0
  1  2  1  0  0  0  0 
  2  3  1  0  0  0  0 
  3  4  1  0  0  0  0 
  4  5  1  0  0  0  0 
  5  6  1  0  0  0  0 
  6  7  1  0  0  0  0 
M  END
> <Name>
DI-2-CHLOROETHYL SULFIDE

> <Source>
NIST2DMolFile

> <Tox>
-0.959

> <CAS>
505-60-2

$$$$

  CDK

  5  4  0  0  0  0  0  0  0  0999 V2000
    0.0000   -0.0000    0.0000 C   0  0  0  0  0  0  0  0  0  0  0  0
    0.6604   -1.1577    0.0000 C   0  0  0  0  0  0  0  0  0  0  0  0
    1.9972   -1.1577    0.0000 C   0  0  0  0  0  0  0  0  0  0  0  0
    0.0000   -2.3020    0.0000 C   0  0  0  0  0  0  0  0  0  0  0  0
    2.6736   -2.3020    0.0000 C   0  0  0  0  0  0  0  0  0  0  0  0
  1  2  1  0  0  0  0 
  2  3  2  0  0  0  0 
  2  4  1  0  0  0  0 
  3  5  1  0  0  0  0 
M  END
> <Name>
2-METHYL-2-BUTENE

> <Source>
DSSTox2DMolFile

> <Tox>
2.670

> <CAS>
513-35-9

$$$$

  CDK

  5  4  0  0  0  0  0  0  0  0999 V2000
    0.2243   -0.6188    0.4176 C   0  0  0  0  0  0  0  0  0  0  0  0
   -0.9629    0.0021   -0.3149 C   0  0  0  0  0  0  0  0  0  0  0  0
    1.8673    0.0069   -0.0518 S   0  0  0  0  0  0  0  0  0  0  0  0
   -2.2119   -0.8319   -0.0713 C   0  0  0  0  0  0  0  0  0  0  0  0
   -1.1978    1.4372    0.1271 C   0  0  0  0  0  0  0  0  0  0  0  0
  1  2  1  0  0  0  0 
  1  3  1  0  0  0  0 
  2  4  1  0  0  0  0 
  2  5  1  0  0  0  0 
M  END
> <Name>
2-METHYL-1-PROPANETHIOL

> <Source>
DougDB3DMolFile

> <Tox>
1.844

> <CAS>
513-44-0

$$$$

  CDK

  5  4  0  0  0  0  0  0  0  0999 V2000
    2.1621    2.7305    1.6575 C   0  0  0  0  0  0  0  0  0  0  0  0
    0.8049    2.1818    1.2747 C   0  0  0  0  0  0  0  0  0  0  0  0
    3.3042    1.9051    1.0690 C   0  0  0  0  0  0  0  0  0  0  0  0
    3.5001    0.6089    1.8293 C   0  0  0  0  0  0  0  0  0  0  0  0
    4.8573    2.8750    0.9379 S   0  0  0  0  0  0  0  0  0  0  0  0
  1  2  1  0  0  0  0 
  1  3  1  0  0  0  0 
  3  4  1  0  0  0  0 
  3  5  1  0  0  0  0 
M  END
> <Name>
2-BUTANETHIOL

> <Source>
NIST3DMolFile

> <Tox>
1.907

> <CAS>
513-53-1

$$$$

  CDK

  6  5  0  0  0  0  0  0  0  0999 V2000
    2.5838    1.4906    0.0000 C   0  0  0  0  0  0  0  0  0  0  0  0
    1.7391    0.9938    0.0000 C   0  0  0  0  0  0  0  0  0  0  0  0
    3.4781    0.9938    0.0000 Br  0  0  0  0  0  0  0  0  0  0  0  0
    0.8944    1.4906    0.0000 C   0  0  0  0  0  0  0  0  0  0  0  0
    1.7391    0.0000    0.0000 Br  0  0  0  0  0  0  0  0  0  0  0  0
    0.0000    0.9938    0.0000 C   0  0  0  0  0  0  0  0  0  0  0  0
  1  2  1  0  0  0  0 
  1  3  1  0  0  0  0 
  2  4  1  0  0  0  0 
  2  5  1  0  0  0  0 
  4  6  1  0  0  0  0 
M  END
> <Name>
1,2-DIBROMOBUTANE

> <Source>
NIST2DMolFile

> <Tox>
0.491

> <CAS>
533-98-2

$$$$

  CDK

  6  5  0  0  0  0  0  0  0  0999 V2000
    2.2870   -1.3318    0.0000 C   0  0  0  0  0  0  0  0  0  0  0  0
    2.2870   -0.0000    0.0000 C   0  0  0  0  0  0  0  0  0  0  0  0
    1.1343   -2.0023    0.0000 O   0  0  0  0  0  0  0  0  0  0  0  0
    3.4397   -2.0023    0.0000 O   0  0  0  0  0  0  0  0  0  0  0  0
    0.0000   -1.3318    0.0000 C   0  0  0  0  0  0  0  0  0  0  0  0
    4.5924   -1.3318    0.0000 C   0  0  0  0  0  0  0  0  0  0  0  0
  1  2  1  0  0  0  0 
  1  3  1  0  0  0  0 
  1  4  1  0  0  0  0 
  3  5  1  0  0  0  0 
  4  6  1  0  0  0  0 
M  END
> <Name>
1,1-DIMETHOXYETHANE

> <Source>
DSSTox2DMolFile

> <Tox>
2.233

> <CAS>
534-15-6

$$$$

  CDK

  8  7  0  0  0  0  0  0  0  0999 V2000
    1.7063    1.5056    0.0000 O   0  0  0  0  0  0  0  0  0  0  0  0
    2.6096    1.0037    0.0000 C   0  0  0  0  0  0  0  0  0  0  0  0
    0.8531    1.0037    0.0000 C   0  0  0  0  0  0  0  0  0  0  0  0
    3.4628    1.5056    0.0000 C   0  0  0  0  0  0  0  0  0  0  0  0
    2.6096    0.0000    0.0000 O   0  0  0  0  0  0  0  0  0  0  0  0
    0.0000    1.5056    0.0000 C   0  0  0  0  0  0  0  0  0  0  0  0
    3.4628    2.5093    0.0000 C   0  0  0  0  0  0  0  0  0  0  0  0
    4.3159    1.0037    0.0000 Cl  0  0  0  0  0  0  0  0  0  0  0  0
  1  2  1  0  0  0  0 
  1  3  1  0  0  0  0 
  2  4  1  0  0  0  0 
  2  5  2  0  0  0  0 
  3  6  1  0  0  0  0 
  4  7  1  0  0  0  0 
  4  8  1  0  0  0  0 
M  END
> <Name>
ETHYL ALPHA-CHLOROPROPIONATE

> <Source>
NIST2DMolFile

> <Tox>
0.558

> <CAS>
535-13-7

$$$$

  CDK

  8  8  0  0  0  0  0  0  0  0999 V2000
    0.0000    0.0000    0.0000 C   0  0  0  0  0  0  0  0  0  0  0  0
    0.5044    0.8574    0.0000 C   0  0  0  0  0  0  0  0  0  0  0  0
    1.5131    0.8574    0.0000 C   0  0  0  0  0  0  0  0  0  0  0  0
    2.0175    1.7148    0.0000 C   0  0  0  0  0  0  0  0  0  0  0  0
    2.0175    0.0000    0.0000 C   0  0  0  0  0  0  0  0  0  0  0  0
    3.0262    1.7148    0.0000 C   0  0  0  0  0  0  0  0  0  0  0  0
    3.0262    0.0000    0.0000 N   0  0  0  0  0  0  0  0  0  0  0  0
    3.5306    0.8574    0.0000 C   0  0  0  0  0  0  0  0  0  0  0  0
  1  2  1  0  0  0  0 
  2  3  1  0  0  0  0 
  4  3  2  0  0  0  0 
  3  5  1  0  0  0  0 
  6  4  1  0  0  0  0 
  5  7  2  0  0  0  0 
  8  6  2  0  0  0  0 
  7  8  1  0  0  0  0 
M  END
> <Name>
3-ETHYLPYRIDINE

> <Source>
NIST2DMolFile

> <Tox>
0.403

> <CAS>
536-78-7

$$$$

  CDK

  9  9  0  0  0  0  0  0  0  0999 V2000
    1.1521   -2.6614    0.0000 O   0  0  0  0  0  0  0  0  0  0  0  0
    0.0000   -1.9989    0.0000 C   0  0  0  0  0  0  0  0  0  0  0  0
    2.3042   -1.9989    0.0000 C   0  0  0  0  0  0  0  0  0  0  0  0
    2.3042   -0.6682    0.0000 C   0  0  0  0  0  0  0  0  0  0  0  0
    3.4563   -2.6614    0.0000 C   0  0  0  0  0  0  0  0  0  0  0  0
    3.4563   -0.0000    0.0000 C   0  0  0  0  0  0  0  0  0  0  0  0
    4.6084   -1.9989    0.0000 C   0  0  0  0  0  0  0  0  0  0  0  0
    4.6084   -0.6682    0.0000 C   0  0  0  0  0  0  0  0  0  0  0  0
    5.7605   -2.6614    0.0000 N   0  0  0  0  0  0  0  0  0  0  0  0
  1  2  1  0  0  0  0 
  1  3  1  0  0  0  0 
  3  4  2  0  0  0  0 
  3  5  1  0  0  0  0 
  4  6  1  0  0  0  0 
  7  5  2  0  0  0  0 
  6  8  2  0  0  0  0 
  8  7  1  0  0  0  0 
  7  9  1  0  0  0  0 
M  END
> <Name>
M-METHOXYANILINE

> <Source>
DSSTox2DMolFile

> <Tox>
-1.125

> <CAS>
536-90-3

$$$$

  CDK

  9  8  0  0  0  0  0  0  0  0999 V2000
    0.0000    0.5056    0.0000 C   0  0  0  0  0  0  0  0  0  0  0  0
    0.9101    0.0000    0.0000 C   0  0  0  0  0  0  0  0  0  0  0  0
    1.7697    0.5056    0.0000 N   0  0  0  0  0  0  0  0  0  0  0  0
    2.6293    0.0000    0.0000 C   0  0  0  0  0  0  0  0  0  0  0  0
    1.7697    1.4663    0.0000 C   0  0  0  0  0  0  0  0  0  0  0  0
    3.4888    0.5056    0.0000 C   0  0  0  0  0  0  0  0  0  0  0  0
    2.5787    1.9719    0.0000 C   0  0  0  0  0  0  0  0  0  0  0  0
    4.3989    0.0000    0.0000 Cl  0  0  0  0  0  0  0  0  0  0  0  0
    2.5787    2.9832    0.0000 Cl  0  0  0  0  0  0  0  0  0  0  0  0
  1  2  1  0  0  0  0 
  2  3  1  0  0  0  0 
  3  4  1  0  0  0  0 
  3  5  1  0  0  0  0 
  4  6  1  0  0  0  0 
  5  7  1  0  0  0  0 
  6  8  1  0  0  0  0 
  7  9  1  0  0  0  0 
M  END
> <Name>
BIS(2-CHLOROETHYL)ETHYLAMINE

> <Source>
NIST2DMolFile

> <Tox>
-0.602

> <CAS>
538-07-8

$$$$

  CDK

  8  8  0  0  0  0  0  0  0  0999 V2000
    0.0000    0.8559    0.0000 F   0  0  0  0  0  0  0  0  0  0  0  0
    1.0070    0.8559    0.0000 C   0  0  0  0  0  0  0  0  0  0  0  0
    1.5105    1.7119    0.0000 C   0  0  0  0  0  0  0  0  0  0  0  0
    1.5105    0.0000    0.0000 C   0  0  0  0  0  0  0  0  0  0  0  0
    2.5174    1.7119    0.0000 C   0  0  0  0  0  0  0  0  0  0  0  0
    2.5174    0.0000    0.0000 C   0  0  0  0  0  0  0  0  0  0  0  0
    3.0209    0.8559    0.0000 C   0  0  0  0  0  0  0  0  0  0  0  0
    4.0279    0.8559    0.0000 F   0  0  0  0  0  0  0  0  0  0  0  0
  1  2  1  0  0  0  0 
  3  2  2  0  0  0  0 
  2  4  1  0  0  0  0 
  5  3  1  0  0  0  0 
  4  6  2  0  0  0  0 
  7  5  2  0  0  0  0 
  6  7  1  0  0  0  0 
  7  8  1  0  0  0  0 
M  END
> <Name>
P-DIFLUOROBENZENE

> <Source>
NIST2DMolFile

> <Tox>
1.808

> <CAS>
540-36-3

$$$$

  CDK

  4  3  0  0  0  0  0  0  0  0999 V2000
    1.3287   -0.0000    0.0000 C   0  0  0  0  0  0  0  0  0  0  0  0
    2.6613   -0.0000    0.0000 C   0  0  0  0  0  0  0  0  0  0  0  0
    0.0000   -0.0000    0.0000 Cl  0  0  0  0  0  0  0  0  0  0  0  0
    3.9900   -0.0000    0.0000 Cl  0  0  0  0  0  0  0  0  0  0  0  0
  1  2  2  0  0  0  0 
  1  3  1  0  0  0  0 
  2  4  1  0  0  0  0 
M  END
> <Name>
1,2-DICHLOROETHYLENE

> <Source>
DSSTox2DMolFile

> <Tox>
2.303

> <CAS>
540-59-0

$$$$

  CDK

  4  3  0  0  0  0  0  0  0  0999 V2000
    0.0000    1.3830    2.0903 S   0  0  0  0  0  0  0  0  0  0  0  0
    1.4759    2.2548    1.4866 C   0  0  0  0  0  0  0  0  0  0  0  0
    2.8252    1.6644    1.8263 C   0  0  0  0  0  0  0  0  0  0  0  0
    3.1980    0.0000    1.1981 S   0  0  0  0  0  0  0  0  0  0  0  0
  1  2  1  0  0  0  0 
  2  3  1  0  0  0  0 
  3  4  1  0  0  0  0 
M  END
> <Name>
1,2-ETHANEDITHIOL

> <Source>
NIST3DMolFile

> <Tox>
0.749

> <CAS>
540-63-6

$$$$

  CDK

  4  3  0  0  0  0  0  0  0  0999 V2000
    1.7489    0.4997    0.0000 N   0  0  0  0  0  0  0  0  0  0  0  0
    0.8495    0.0000    0.0000 N   0  0  0  0  0  0  0  0  0  0  0  0
    2.5984    0.0000    0.0000 C   0  0  0  0  0  0  0  0  0  0  0  0
    0.0000    0.4997    0.0000 C   0  0  0  0  0  0  0  0  0  0  0  0
  1  2  1  0  0  0  0 
  1  3  1  0  0  0  0 
  2  4  1  0  0  0  0 
M  END
> <Name>
1,2-DIMETHYLHYDRAZINE

> <Source>
NIST2DMolFile

> <Tox>
1.844

> <CAS>
540-73-8

$$$$

  CDK

  6  5  0  0  0  0  0  0  0  0999 V2000
    3.2284    1.9676    1.4521 C   0  0  0  0  0  0  0  0  0  0  0  0
    1.7555    2.0671    1.0464 C   0  0  0  0  0  0  0  0  0  0  0  0
    3.9435    3.2898    1.2447 C   0  0  0  0  0  0  0  0  0  0  0  0
    1.1074    0.6936    1.0808 C   0  0  0  0  0  0  0  0  0  0  0  0
    1.0113    3.0298    1.9583 C   0  0  0  0  0  0  0  0  0  0  0  0
    5.6640    3.3315    1.8205 S   0  0  0  0  0  0  0  0  0  0  0  0
  1  2  1  0  0  0  0 
  1  3  1  0  0  0  0 
  2  4  1  0  0  0  0 
  2  5  1  0  0  0  0 
  3  6  1  0  0  0  0 
M  END
> <Name>
ISOAMYLTHIOL

> <Source>
NIST3DMolFile

> <Tox>
1.307

> <CAS>
541-31-1

$$$$

  CDK

  5  5  0  0  0  0  0  0  0  0999 V2000
    2.1592   -0.7838    0.0000 C   0  0  0  0  0  0  0  0  0  0  0  0
    1.7273   -2.0318    0.0000 C   0  0  0  0  0  0  0  0  0  0  0  0
    1.0882   -0.0000    0.0000 C   0  0  0  0  0  0  0  0  0  0  0  0
    0.3843   -2.0318    0.0000 C   0  0  0  0  0  0  0  0  0  0  0  0
    0.0000   -0.7514    0.0000 C   0  0  0  0  0  0  0  0  0  0  0  0
  1  2  2  0  0  0  0 
  1  3  1  0  0  0  0 
  2  4  1  0  0  0  0 
  5  3  1  0  0  0  0 
  4  5  2  0  0  0  0 
M  END
> <Name>
CYCLOPENTADIENE

> <Source>
DSSTox2DMolFile

> <Tox>
2.638

> <CAS>
542-92-7

$$$$

  CDK

  8  7  0  0  0  0  0  0  0  0999 V2000
    1.7121    1.5107    0.0000 C   0  0  0  0  0  0  0  0  0  0  0  0
    2.6185    1.0071    0.0000 C   0  0  0  0  0  0  0  0  0  0  0  0
    0.8561    1.0071    0.0000 C   0  0  0  0  0  0  0  0  0  0  0  0
    3.4746    1.5611    0.0000 C   0  0  0  0  0  0  0  0  0  0  0  0
    0.8561    0.0000    0.0000 Cl  0  0  0  0  0  0  0  0  0  0  0  0
    0.0000    1.5107    0.0000 O   0  0  0  0  0  0  0  0  0  0  0  0
    3.4746    2.5178    0.0000 Cl  0  0  0  0  0  0  0  0  0  0  0  0
    4.3307    1.0575    0.0000 O   0  0  0  0  0  0  0  0  0  0  0  0
  1  2  1  0  0  0  0 
  1  3  1  0  0  0  0 
  2  4  1  0  0  0  0 
  3  5  1  0  0  0  0 
  3  6  2  0  0  0  0 
  4  7  1  0  0  0  0 
  4  8  2  0  0  0  0 
M  END
> <Name>
SUCCINYL CHLORIDE

> <Source>
NIST2DMolFile

> <Tox>
-0.432

> <CAS>
543-20-4

$$$$

  CDK

  8  7  0  0  0  0  0  0  0  0999 V2000
    3.3043    0.9653   -0.0607 C   0  0  0  0  0  0  0  0  0  0  0  0
    2.1663   -0.0238   -0.3139 C   0  0  0  0  0  0  0  0  0  0  0  0
    0.8411    0.5286    0.2289 C   0  0  0  0  0  0  0  0  0  0  0  0
    2.4009   -1.2611    0.3365 O   0  0  0  0  0  0  0  0  0  0  0  0
   -0.3605   -0.2252   -0.3174 C   0  0  0  0  0  0  0  0  0  0  0  0
   -1.6607    0.3552    0.2158 C   0  0  0  0  0  0  0  0  0  0  0  0
   -2.8664   -0.3907   -0.3332 C   0  0  0  0  0  0  0  0  0  0  0  0
   -4.1610    0.1823    0.1976 C   0  0  0  0  0  0  0  0  0  0  0  0
  1  2  1  0  0  0  0 
  2  3  1  0  0  0  0 
  2  4  1  0  0  0  0 
  3  5  1  0  0  0  0 
  5  6  1  0  0  0  0 
  6  7  1  0  0  0  0 
  7  8  1  0  0  0  0 
M  END
> <Name>
2-HEPTANOL

> <Source>
DougDB3DMolFile

> <Tox>
0.090

> <CAS>
543-49-7

$$$$

  CDK

 11 12  0  0  0  0  0  0  0  0999 V2000
    1.3755   -3.3947    0.0000 C   0  0  0  0  0  0  0  0  0  0  0  0
    2.7069   -3.3947    0.0000 C   0  0  0  0  0  0  0  0  0  0  0  0
    0.0880   -3.0811    0.0000 C   0  0  0  0  0  0  0  0  0  0  0  0
    0.9738   -2.0852    0.0000 C   0  0  0  0  0  0  0  0  0  0  0  0
    1.1994   -4.7041    0.0000 C   0  0  0  0  0  0  0  0  0  0  0  0
    3.1306   -2.1292    0.0000 C   0  0  0  0  0  0  0  0  0  0  0  0
    2.0632   -1.3315    0.0000 C   0  0  0  0  0  0  0  0  0  0  0  0
    2.2613   -5.5019    0.0000 C   0  0  0  0  0  0  0  0  0  0  0  0
    0.0000   -5.2158    0.0000 C   0  0  0  0  0  0  0  0  0  0  0  0
    4.3905   -1.7331    0.0000 O   0  0  0  0  0  0  0  0  0  0  0  0
    2.0852   -0.0000    0.0000 C   0  0  0  0  0  0  0  0  0  0  0  0
  1  2  1  0  0  0  0 
  1  3  1  6  0  0  0 
  1  4  1  0  0  0  0 
  1  5  1  1  0  0  0 
  2  6  1  0  0  0  0 
  4  3  1  6  0  0  0 
  4  7  1  0  0  0  0 
  5  8  1  0  0  0  0 
  5  9  1  0  0  0  0 
  6  7  1  0  0  0  0 
  6 10  2  0  0  0  0 
  7 11  1  1  0  0  0 
M  END
> <Name>
THUJONE

> <Source>
DSSTox2DMolFile

> <Tox>
-0.385

> <CAS>
546-80-5

$$$$

  CDK

  4  3  0  0  0  0  0  0  0  0999 V2000
    3.3274   -0.0000    0.0000 C   0  0  0  0  0  0  0  0  0  0  0  0
    2.6586   -1.1513    0.0000 N   0  0  0  0  0  0  0  0  0  0  0  0
    1.3376   -1.1513    0.0000 C   0  0  0  0  0  0  0  0  0  0  0  0
    0.0000   -1.1513    0.0000 S   0  0  0  0  0  0  0  0  0  0  0  0
  1  2  1  0  0  0  0 
  3  2  2  0  0  0  0 
  3  4  2  0  0  0  0 
M  END
> <Name>
METHYL ISOTHIOCYANATE

> <Source>
DSSTox2DMolFile

> <Tox>
0.549

> <CAS>
556-61-6

$$$$

  CDK

  5  4  0  0  0  0  0  0  0  0999 V2000
    3.3946    2.7424    1.2683 C   0  0  0  0  0  0  0  0  0  0  0  0
    2.1465    2.0277    1.6799 C   0  0  0  0  0  0  0  0  0  0  0  0
    4.4514    2.1942    0.6822 C   0  0  0  0  0  0  0  0  0  0  0  0
    2.1103    0.5579    1.2979 C   0  0  0  0  0  0  0  0  0  0  0  0
    0.9375    2.7481    1.0972 C   0  0  0  0  0  0  0  0  0  0  0  0
  1  2  1  0  0  0  0 
  1  3  2  0  0  0  0 
  2  4  1  0  0  0  0 
  2  5  1  0  0  0  0 
M  END
> <Name>
3-METHYL-1-BUTENE

> <Source>
NIST3DMolFile

> <Tox>
2.956

> <CAS>
563-45-1

$$$$

  CDK

 12 13  0  0  0  0  0  0  0  0999 V2000
    2.3099   -2.0065    0.0000 C   0  0  0  0  0  0  0  0  0  0  0  0
    2.3099   -3.3371    0.0000 C   0  0  0  0  0  0  0  0  0  0  0  0
    1.1550   -1.3306    0.0000 C   0  0  0  0  0  0  0  0  0  0  0  0
    3.4489   -1.3306    0.0000 C   0  0  0  0  0  0  0  0  0  0  0  0
    1.1550   -3.9918    0.0000 C   0  0  0  0  0  0  0  0  0  0  0  0
    3.4489   -3.9918    0.0000 C   0  0  0  0  0  0  0  0  0  0  0  0
    0.0000   -2.0065    0.0000 C   0  0  0  0  0  0  0  0  0  0  0  0
    4.5985   -1.9852    0.0000 C   0  0  0  0  0  0  0  0  0  0  0  0
    3.4489   -0.0000    0.0000 C   0  0  0  0  0  0  0  0  0  0  0  0
    0.0000   -3.3371    0.0000 C   0  0  0  0  0  0  0  0  0  0  0  0
    4.5985   -3.3371    0.0000 C   0  0  0  0  0  0  0  0  0  0  0  0
    3.4489   -5.3224    0.0000 C   0  0  0  0  0  0  0  0  0  0  0  0
  1  2  2  0  0  0  0 
  1  3  1  0  0  0  0 
  1  4  1  0  0  0  0 
  2  5  1  0  0  0  0 
  2  6  1  0  0  0  0 
  3  7  2  0  0  0  0 
  4  8  2  0  0  0  0 
  4  9  1  0  0  0  0 
  5 10  2  0  0  0  0 
  6 11  2  0  0  0  0 
  6 12  1  0  0  0  0 
 10  7  1  0  0  0  0 
  8 11  1  0  0  0  0 
M  END
> <Name>
1,4-DIMETHYLNAPHTHALENE

> <Source>
DSSTox2DMolFile

> <Tox>
-1.670

> <CAS>
571-58-4

$$$$

  CDK

 16 17  0  0  0  0  0  0  0  0999 V2000
    2.5016    2.6037    0.0000 C   0  0  0  0  0  0  0  0  0  0  0  0
    1.5826    2.6037    0.0000 C   0  0  0  0  0  0  0  0  0  0  0  0
    3.0121    3.4716    0.0000 C   0  0  0  0  0  0  0  0  0  0  0  0
    1.0721    3.4716    0.0000 C   0  0  0  0  0  0  0  0  0  0  0  0
    1.0210    1.7358    0.0000 C   0  0  0  0  0  0  0  0  0  0  0  0
    2.5016    4.3394    0.0000 C   0  0  0  0  0  0  0  0  0  0  0  0
    1.5316    4.3394    0.0000 C   0  0  0  0  0  0  0  0  0  0  0  0
    1.5316    0.8679    0.0000 C   0  0  0  0  0  0  0  0  0  0  0  0
    0.0000    1.7358    0.0000 O   0  0  0  0  0  0  0  0  0  0  0  0
    1.0210    0.0000    0.0000 O   0  0  0  0  0  0  0  0  0  0  0  0
    2.5016    0.8679    0.0000 C   0  0  0  0  0  0  0  0  0  0  0  0
    3.0121    0.0000    0.0000 C   0  0  0  0  0  0  0  0  0  0  0  0
    3.0121    1.7358    0.0000 C   0  0  0  0  0  0  0  0  0  0  0  0
    4.0331    0.0000    0.0000 C   0  0  0  0  0  0  0  0  0  0  0  0
    4.0331    1.7358    0.0000 C   0  0  0  0  0  0  0  0  0  0  0  0
    4.5437    0.8679    0.0000 C   0  0  0  0  0  0  0  0  0  0  0  0
  2  1  2  0  0  0  0 
  1  3  1  0  0  0  0 
  4  2  1  0  0  0  0 
  2  5  1  0  0  0  0 
  3  6  2  0  0  0  0 
  7  4  2  0  0  0  0 
  5  8  1  0  0  0  0 
  5  9  2  0  0  0  0 
  6  7  1  0  0  0  0 
  8 10  1  0  0  0  0 
  8 11  1  0  0  0  0 
 11 12  2  0  0  0  0 
 13 11  1  0  0  0  0 
 12 14  1  0  0  0  0 
 15 13  2  0  0  0  0 
 14 16  2  0  0  0  0 
 16 15  1  0  0  0  0 
M  END
> <Name>
DL-BENZOIN

> <Source>
NIST2DMolFile

> <Tox>
-4.900

> <CAS>
579-44-2

$$$$

  CDK

 11 11  0  0  0  0  0  0  0  0999 V2000
    0.5117    1.7911    0.0000 C   0  0  0  0  0  0  0  0  0  0  0  0
    0.0000    2.6098    0.0000 C   0  0  0  0  0  0  0  0  0  0  0  0
    1.4840    1.7399    0.0000 C   0  0  0  0  0  0  0  0  0  0  0  0
    0.5117    3.4798    0.0000 C   0  0  0  0  0  0  0  0  0  0  0  0
    1.9958    0.8699    0.0000 O   0  0  0  0  0  0  0  0  0  0  0  0
    1.9958    2.6098    0.0000 C   0  0  0  0  0  0  0  0  0  0  0  0
    1.4840    3.4798    0.0000 C   0  0  0  0  0  0  0  0  0  0  0  0
    1.4840    0.0000    0.0000 C   0  0  0  0  0  0  0  0  0  0  0  0
    3.0192    2.6098    0.0000 C   0  0  0  0  0  0  0  0  0  0  0  0
    3.5310    1.7399    0.0000 O   0  0  0  0  0  0  0  0  0  0  0  0
    3.5310    3.4798    0.0000 O   0  0  0  0  0  0  0  0  0  0  0  0
  1  2  2  0  0  0  0 
  3  1  1  0  0  0  0 
  2  4  1  0  0  0  0 
  3  5  1  0  0  0  0 
  6  3  2  0  0  0  0 
  4  7  2  0  0  0  0 
  5  8  1  0  0  0  0 
  6  9  1  0  0  0  0 
  7  6  1  0  0  0  0 
  9 10  1  0  0  0  0 
  9 11  2  0  0  0  0 
M  END
> <Name>
O-METHOXYBENZOIC ACID

> <Source>
NIST2DMolFile

> <Tox>
-4.799

> <CAS>
579-75-9

$$$$

  CDK

  8  7  0  0  0  0  0  0  0  0999 V2000
    3.2073    0.5986    1.0983 C   0  0  0  0  0  0  0  0  0  0  0  0
    3.2878    2.0185    1.6412 C   0  0  0  0  0  0  0  0  0  0  0  0
    2.1222    2.8520    1.0970 C   0  0  0  0  0  0  0  0  0  0  0  0
    4.6399    2.6652    1.2807 C   0  0  0  0  0  0  0  0  0  0  0  0
    0.8187    2.5503    1.8011 C   0  0  0  0  0  0  0  0  0  0  0  0
    5.8141    1.8487    1.8310 C   0  0  0  0  0  0  0  0  0  0  0  0
    4.7352    4.0878    1.8141 C   0  0  0  0  0  0  0  0  0  0  0  0
    7.1317    2.3329    1.2678 C   0  0  0  0  0  0  0  0  0  0  0  0
  1  2  1  0  0  0  0 
  2  3  1  0  0  0  0 
  2  4  1  0  0  0  0 
  5  3  1  0  0  0  0 
  4  6  1  0  0  0  0 
  4  7  1  0  0  0  0 
  6  8  1  0  0  0  0 
M  END
> <Name>
3,4-DIMETHYLHEXANE

> <Source>
NIST3DMolFile

> <Tox>
1.336

> <CAS>
583-48-2

$$$$

  CDK

  8  8  0  0  0  0  0  0  0  0999 V2000
    0.7071    1.3509   -0.0001 C   0  0  0  0  0  0  0  0  0  0  0  0
   -0.5319    0.6975    0.0004 C   0  0  0  0  0  0  0  0  0  0  0  0
    1.8752    0.6733   -0.0003 N   0  0  0  0  0  0  0  0  0  0  0  0
   -0.5508   -0.7052    0.0003 C   0  0  0  0  0  0  0  0  0  0  0  0
   -1.7845    1.4921    0.0001 C   0  0  0  0  0  0  0  0  0  0  0  0
    1.8606   -0.6796    0.0000 C   0  0  0  0  0  0  0  0  0  0  0  0
    0.6646   -1.3937    0.0003 C   0  0  0  0  0  0  0  0  0  0  0  0
   -1.8304   -1.4573   -0.0004 C   0  0  0  0  0  0  0  0  0  0  0  0
  1  2  1  0  0  0  0 
  1  3  2  0  0  0  0 
  2  4  2  0  0  0  0 
  2  5  1  0  0  0  0 
  6  3  1  0  0  0  0 
  4  7  1  0  0  0  0 
  4  8  1  0  0  0  0 
  7  6  2  0  0  0  0 
M  END
> <Name>
3,4-DIMETHYLPYRIDINE

> <Source>
DougDB3DMolFile

> <Tox>
0.093

> <CAS>
583-58-4

$$$$

  CDK

  7  6  0  0  0  0  0  0  0  0999 V2000
    0.0000   -1.3315    0.0000 C   0  0  0  0  0  0  0  0  0  0  0  0
    1.1518   -1.9950    0.0000 C   0  0  0  0  0  0  0  0  0  0  0  0
    2.3037   -1.3315    0.0000 C   0  0  0  0  0  0  0  0  0  0  0  0
    3.4555   -1.9950    0.0000 C   0  0  0  0  0  0  0  0  0  0  0  0
    2.3037   -0.0000    0.0000 O   0  0  0  0  0  0  0  0  0  0  0  0
    4.6073   -1.3315    0.0000 C   0  0  0  0  0  0  0  0  0  0  0  0
    4.6073   -0.0000    0.0000 C   0  0  0  0  0  0  0  0  0  0  0  0
  1  2  1  0  0  0  0 
  2  3  1  0  0  0  0 
  3  4  1  0  0  0  0 
  3  5  2  0  0  0  0 
  4  6  1  0  0  0  0 
  6  7  1  0  0  0  0 
M  END
> <Name>
3-HEXANONE

> <Source>
DSSTox2DMolFile

> <Tox>
1.143

> <CAS>
589-38-8

$$$$

  CDK

  8  7  0  0  0  0  0  0  0  0999 V2000
    5.9060    2.2898    0.8750 C   0  0  0  0  0  0  0  0  0  0  0  0
    4.6173    2.1423    1.6841 C   0  0  0  0  0  0  0  0  0  0  0  0
    7.1318    2.0560    1.7457 C   0  0  0  0  0  0  0  0  0  0  0  0
    3.4052    2.5590    0.8506 C   0  0  0  0  0  0  0  0  0  0  0  0
    4.4586    0.7109    2.1741 C   0  0  0  0  0  0  0  0  0  0  0  0
    8.3971    1.9820    0.9235 C   0  0  0  0  0  0  0  0  0  0  0  0
    2.1410    2.5934    1.6969 C   0  0  0  0  0  0  0  0  0  0  0  0
    0.9056    2.7908    0.8501 C   0  0  0  0  0  0  0  0  0  0  0  0
  1  2  1  0  0  0  0 
  1  3  1  0  0  0  0 
  2  4  1  0  0  0  0 
  2  5  1  0  0  0  0 
  3  6  1  0  0  0  0 
  4  7  1  0  0  0  0 
  7  8  1  0  0  0  0 
M  END
> <Name>
4-METHYLHEPTANE

> <Source>
NIST3DMolFile

> <Tox>
1.312

> <CAS>
589-53-7

$$$$

  CDK

  9  8  0  0  0  0  0  0  0  0999 V2000
    0.0000    0.0000    0.0000 O   0  0  0  0  0  0  0  0  0  0  0  0
    1.4000    0.0600   -0.1600 C   0  0  0  0  0  0  0  0  0  0  0  0
    1.7000    0.8200   -1.4600 C   0  0  0  0  0  0  0  0  0  0  0  0
    1.9800    0.7600    1.0800 C   0  0  0  0  0  0  0  0  0  0  0  0
    1.4200   -0.0200   -2.7000 C   0  0  0  0  0  0  0  0  0  0  0  0
    1.8600   -0.1000    2.3400 C   0  0  0  0  0  0  0  0  0  0  0  0
    2.6600   -0.2400   -3.5600 C   0  0  0  0  0  0  0  0  0  0  0  0
    2.5000    0.5800    3.5600 C   0  0  0  0  0  0  0  0  0  0  0  0
    2.3600   -0.9000   -4.9000 C   0  0  0  0  0  0  0  0  0  0  0  0
  1  2  1  0  0  0  0 
  2  3  1  0  0  0  0 
  2  4  1  0  0  0  0 
  3  5  1  0  0  0  0 
  4  6  1  0  0  0  0 
  5  7  1  0  0  0  0 
  6  8  1  0  0  0  0 
  7  9  1  0  0  0  0 
M  END
> <Name>
4-OCTANOL

> <Source>
NIH3DMolFile

> <Tox>
-0.507

> <CAS>
589-62-8

$$$$

  CDK

  9  8  0  0  0  0  0  0  0  0999 V2000
    5.7791   -1.3355    0.0000 C   0  0  0  0  0  0  0  0  0  0  0  0
    6.9365   -1.9911    0.0000 C   0  0  0  0  0  0  0  0  0  0  0  0
    4.6216   -1.9911    0.0000 O   0  0  0  0  0  0  0  0  0  0  0  0
    5.7791   -0.0000    0.0000 O   0  0  0  0  0  0  0  0  0  0  0  0
    8.0940   -1.3355    0.0000 C   0  0  0  0  0  0  0  0  0  0  0  0
    3.4723   -1.3355    0.0000 C   0  0  0  0  0  0  0  0  0  0  0  0
    2.3149   -1.9911    0.0000 C   0  0  0  0  0  0  0  0  0  0  0  0
    1.1574   -1.3355    0.0000 C   0  0  0  0  0  0  0  0  0  0  0  0
    0.0000   -1.9911    0.0000 C   0  0  0  0  0  0  0  0  0  0  0  0
  1  2  1  0  0  0  0 
  1  3  1  0  0  0  0 
  1  4  2  0  0  0  0 
  2  5  1  0  0  0  0 
  3  6  1  0  0  0  0 
  6  7  1  0  0  0  0 
  7  8  1  0  0  0  0 
  8  9  1  0  0  0  0 
M  END
> <Name>
N-BUTYL PROPIONATE

> <Source>
DSSTox2DMolFile

> <Tox>
0.645

> <CAS>
590-01-2

$$$$

  CDK

  4  3  0  0  0  0  0  0  0  0999 V2000
   13.5263  -12.6401    0.0000 C   0  0  0  0  0  0  0  0  0  0  0  0
   12.3136  -11.9404    0.0000 C   0  0  0  0  0  0  0  0  0  0  0  0
   13.5263  -14.0393    0.0000 I   0  0  0  0  0  0  0  0  0  0  0  0
   11.1009  -12.6401    0.0000 I   0  0  0  0  0  0  0  0  0  0  0  0
  1  2  2  0  0  0  0 
  1  3  1  0  0  0  0 
  2  4  1  0  0  0  0 
M  END
> <Name>
1,2-DIIODOETHENE (CIS)

> <Source>
IndexNet2DMolFile

> <Tox>
-0.513

> <CAS>
590-26-1

$$$$

  CDK

  6  5  0  0  0  0  0  0  0  0999 V2000
    3.4563   -0.0000    0.0000 C   0  0  0  0  0  0  0  0  0  0  0  0
    3.4563   -1.3318    0.0000 C   0  0  0  0  0  0  0  0  0  0  0  0
    4.6084   -1.9954    0.0000 C   0  0  0  0  0  0  0  0  0  0  0  0
    2.3042   -1.9954    0.0000 C   0  0  0  0  0  0  0  0  0  0  0  0
    1.1521   -1.3318    0.0000 C   0  0  0  0  0  0  0  0  0  0  0  0
    0.0000   -1.9954    0.0000 O   0  0  0  0  0  0  0  0  0  0  0  0
  1  2  1  0  0  0  0 
  2  3  1  0  0  0  0 
  2  4  1  0  0  0  0 
  4  5  1  0  0  0  0 
  5  6  2  0  0  0  0 
M  END
> <Name>
3-METHYL-1-BUTANAL

> <Source>
DSSTox2DMolFile

> <Tox>
1.699

> <CAS>
590-86-3

$$$$

  CDK

  8  8  0  0  0  0  0  0  0  0999 V2000
    1.1520   -1.9953    0.0000 C   0  0  0  0  0  0  0  0  0  0  0  0
    1.1520   -0.6635    0.0000 C   0  0  0  0  0  0  0  0  0  0  0  0
    2.3040   -2.6588    0.0000 C   0  0  0  0  0  0  0  0  0  0  0  0
    0.0000   -2.6588    0.0000 C   0  0  0  0  0  0  0  0  0  0  0  0
    2.3040   -0.0000    0.0000 C   0  0  0  0  0  0  0  0  0  0  0  0
    3.4560   -1.9953    0.0000 C   0  0  0  0  0  0  0  0  0  0  0  0
    3.4560   -0.6635    0.0000 C   0  0  0  0  0  0  0  0  0  0  0  0
    4.6080   -2.6588    0.0000 Br  0  0  0  0  0  0  0  0  0  0  0  0
  1  2  2  0  0  0  0 
  1  3  1  0  0  0  0 
  1  4  1  0  0  0  0 
  2  5  1  0  0  0  0 
  6  3  2  0  0  0  0 
  5  7  2  0  0  0  0 
  7  6  1  0  0  0  0 
  6  8  1  0  0  0  0 
M  END
> <Name>
M-BROMOTOLUENE

> <Source>
DSSTox2DMolFile

> <Tox>
0.185

> <CAS>
591-17-3

$$$$

  CDK

  7  7  0  0  0  0  0  0  0  0999 V2000
    0.7009    0.0000    0.0000 C   0  0  0  0  0  0  0  0  0  0  0  0
    1.3549   -1.2169    0.0000 C   0  0  0  0  0  0  0  0  0  0  0  0
    1.3550    1.2169    0.0000 C   0  0  0  0  0  0  0  0  0  0  0  0
   -1.2694    0.0000    0.0000 I   0  0  0  0  0  0  0  0  0  0  0  0
    2.7485   -1.2099    0.0000 C   0  0  0  0  0  0  0  0  0  0  0  0
    2.7485    1.2099    0.0000 C   0  0  0  0  0  0  0  0  0  0  0  0
    3.4386    0.0000    0.0000 C   0  0  0  0  0  0  0  0  0  0  0  0
  1  2  1  0  0  0  0 
  1  3  2  0  0  0  0 
  1  4  1  0  0  0  0 
  2  5  2  0  0  0  0 
  6  3  1  0  0  0  0 
  5  7  1  0  0  0  0 
  7  6  2  0  0  0  0 
M  END
> <Name>
IODOBENZENE

> <Source>
DougDB3DMolFile

> <Tox>
0.025

> <CAS>
591-50-4

$$$$

  CDK

  5  4  0  0  0  0  0  0  0  0999 V2000
    0.8770    1.5837    1.4522 C   0  0  0  0  0  0  0  0  0  0  0  0
    1.1475    1.2812    2.8856 C   0  0  0  0  0  0  0  0  0  0  0  0
    0.3045    2.7104    1.0457 C   0  0  0  0  0  0  0  0  0  0  0  0
    2.5412    0.7910    3.0766 C   0  0  0  0  0  0  0  0  0  0  0  0
    3.3524    1.2638    4.0154 C   0  0  0  0  0  0  0  0  0  0  0  0
  1  2  1  0  0  0  0 
  1  3  2  0  0  0  0 
  2  4  1  0  0  0  0 
  4  5  2  0  0  0  0 
M  END
> <Name>
1,4-PENTADIENE

> <Source>
NIST3DMolFile

> <Tox>
2.874

> <CAS>
591-93-5

$$$$

  CDK

  8  7  0  0  0  0  0  0  0  0999 V2000
    3.4066    2.3154    1.1921 C   0  0  0  0  0  0  0  0  0  0  0  0
    4.6721    1.4734    1.2605 C   0  0  0  0  0  0  0  0  0  0  0  0
    2.1478    1.4497    1.2451 C   0  0  0  0  0  0  0  0  0  0  0  0
    5.9140    2.3363    1.4836 C   0  0  0  0  0  0  0  0  0  0  0  0
    2.0384    0.7432    2.5868 C   0  0  0  0  0  0  0  0  0  0  0  0
    0.9125    2.2956    0.9875 C   0  0  0  0  0  0  0  0  0  0  0  0
    5.8581    3.0174    2.8417 C   0  0  0  0  0  0  0  0  0  0  0  0
    7.1726    1.4940    1.3628 C   0  0  0  0  0  0  0  0  0  0  0  0
  1  2  1  0  0  0  0 
  1  3  1  0  0  0  0 
  2  4  1  0  0  0  0 
  3  5  1  0  0  0  0 
  3  6  1  0  0  0  0 
  4  7  1  0  0  0  0 
  4  8  1  0  0  0  0 
M  END
> <Name>
2,5-DIMETHYLHEXANE

> <Source>
NIST3DMolFile

> <Tox>
1.481

> <CAS>
592-13-2

$$$$

  CDK

  6  5  0  0  0  0  0  0  0  0999 V2000
    0.0000   -0.0000    0.0000 C   0  0  0  0  0  0  0  0  0  0  0  0
    1.1745   -0.6454    0.0000 C   0  0  0  0  0  0  0  0  0  0  0  0
    2.3141   -0.0000    0.0000 C   0  0  0  0  0  0  0  0  0  0  0  0
    3.4712   -0.6454    0.0000 C   0  0  0  0  0  0  0  0  0  0  0  0
    4.6283   -0.0000    0.0000 C   0  0  0  0  0  0  0  0  0  0  0  0
    5.8144   -0.6454    0.0000 C   0  0  0  0  0  0  0  0  0  0  0  0
  1  2  2  0  0  0  0 
  2  3  1  0  0  0  0 
  3  4  1  0  0  0  0 
  4  5  2  0  0  0  0 
  5  6  1  0  0  0  0 
M  END
> <Name>
1,4-Hexadiene

> <Source>
DSSTox2DMolFile

> <Tox>
2.236

> <CAS>
592-45-0

$$$$

  CDK

 27 26  0  0  0  0  0  0  0  0999 V2000
    4.0460    2.4034    3.2878 C   0  0  0  0  0  0  0  0  0  0  0  0
    3.9058    3.3161    2.0798 C   0  0  0  0  0  0  0  0  0  0  0  0
    5.4782    1.9153    3.4317 C   0  0  0  0  0  0  0  0  0  0  0  0
    2.5603    4.0183    2.0380 C   0  0  0  0  0  0  0  0  0  0  0  0
    5.9310    1.0698    2.2453 C   0  0  0  0  0  0  0  0  0  0  0  0
    2.5458    5.1338    1.0006 C   0  0  0  0  0  0  0  0  0  0  0  0
    7.4129    1.2726    1.9589 C   0  0  0  0  0  0  0  0  0  0  0  0
    3.5384    6.2359    1.3498 C   0  0  0  0  0  0  0  0  0  0  0  0
    7.6708    2.6806    1.4426 C   0  0  0  0  0  0  0  0  0  0  0  0
    3.1633    6.9349    2.6462 C   0  0  0  0  0  0  0  0  0  0  0  0
    9.1012    3.1398    1.6615 C   0  0  0  0  0  0  0  0  0  0  0  0
    4.3118    7.7544    3.2135 C   0  0  0  0  0  0  0  0  0  0  0  0
    9.2986    4.5818    1.2133 C   0  0  0  0  0  0  0  0  0  0  0  0
    4.1141    8.0469    4.6939 C   0  0  0  0  0  0  0  0  0  0  0  0
    8.3646    5.5664    1.9031 C   0  0  0  0  0  0  0  0  0  0  0  0
    4.1560    6.7689    5.5179 C   0  0  0  0  0  0  0  0  0  0  0  0
    8.7124    5.7956    3.3654 C   0  0  0  0  0  0  0  0  0  0  0  0
    3.8348    7.0220    6.9799 C   0  0  0  0  0  0  0  0  0  0  0  0
    7.9626    6.9943    3.9255 C   0  0  0  0  0  0  0  0  0  0  0  0
    3.7668    5.7379    7.7957 C   0  0  0  0  0  0  0  0  0  0  0  0
    8.1245    7.0953    5.4337 C   0  0  0  0  0  0  0  0  0  0  0  0
    2.4377    5.0016    7.6861 C   0  0  0  0  0  0  0  0  0  0  0  0
    7.5756    8.4095    5.9667 C   0  0  0  0  0  0  0  0  0  0  0  0
    2.3642    4.0722    6.4849 C   0  0  0  0  0  0  0  0  0  0  0  0
    7.6211    8.4574    7.4768 C   0  0  0  0  0  0  0  0  0  0  0  0
    1.0325    3.3405    6.4308 C   0  0  0  0  0  0  0  0  0  0  0  0
    0.9579    2.4137    5.2386 C   0  0  0  0  0  0  0  0  0  0  0  0
  1  2  1  0  0  0  0 
  1  3  1  0  0  0  0 
  2  4  1  0  0  0  0 
  3  5  1  0  0  0  0 
  4  6  1  0  0  0  0 
  5  7  1  0  0  0  0 
  6  8  1  0  0  0  0 
  7  9  1  0  0  0  0 
  8 10  1  0  0  0  0 
  9 11  1  0  0  0  0 
 10 12  1  0  0  0  0 
 11 13  1  0  0  0  0 
 12 14  1  0  0  0  0 
 13 15  1  0  0  0  0 
 14 16  1  0  0  0  0 
 15 17  1  0  0  0  0 
 16 18  1  0  0  0  0 
 17 19  1  0  0  0  0 
 18 20  1  0  0  0  0 
 19 21  1  0  0  0  0 
 20 22  1  0  0  0  0 
 21 23  1  0  0  0  0 
 22 24  1  0  0  0  0 
 23 25  1  0  0  0  0 
 24 26  1  0  0  0  0 
 26 27  1  0  0  0  0 
M  END
> <Name>
HEPTACOSANE

> <Source>
NIST3DMolFile

> <Tox>
-6.551

> <CAS>
593-49-7

$$$$

  CDK

  3  2  0  0  0  0  0  0  0  0999 V2000
    2.3030   -0.6656    0.0000 C   0  0  0  0  0  0  0  0  0  0  0  0
    1.1515   -0.0000    0.0000 C   0  0  0  0  0  0  0  0  0  0  0  0
    0.0000   -0.6656    0.0000 Br  0  0  0  0  0  0  0  0  0  0  0  0
  1  2  2  0  0  0  0 
  2  3  1  0  0  0  0 
M  END
> <Name>
BROMOETHENE

> <Source>
DSSTox2DMolFile

> <Tox>
3.013

> <CAS>
593-60-2

$$$$

  CDK

  7  6  0  0  0  0  0  0  0  0999 V2000
    1.3304   -3.3260    0.0000 Cl  0  0  0  0  0  0  0  0  0  0  0  0
    1.3304   -1.9956    0.0000 C   0  0  0  0  0  0  0  0  0  0  0  0
    2.6608   -1.9956    0.0000 Cl  0  0  0  0  0  0  0  0  0  0  0  0
    1.3304   -0.6652    0.0000 N   0  0  0  0  0  0  0  0  0  0  0  0
    0.0000   -1.9956    0.0000 C   0  0  0  0  0  0  0  0  0  0  0  0
    2.4812   -0.0000    0.0000 O   0  0  0  0  0  0  0  0  0  0  0  0
    0.1796   -0.0000    0.0000 O   0  0  0  0  0  0  0  0  0  0  0  0
  1  2  1  0  0  0  0 
  2  3  1  0  0  0  0 
  2  4  1  0  0  0  0 
  2  5  1  0  0  0  0 
  4  6  2  0  0  0  0 
  4  7  1  0  0  0  0 
M  CHG  1   4   1
M  CHG  1   7  -1
M  END
> <Name>
1,1-DICHLORO-1-NITROETHANE

> <Source>
DSSTox2DMolFile

> <Tox>
1.228

> <CAS>
594-72-9

$$$$

  CDK

  8  7  0  0  0  0  0  0  0  0999 V2000
    2.5508    0.9503    0.0000 C   0  0  0  0  0  0  0  0  0  0  0  0
    1.5004    0.9503    0.0000 C   0  0  0  0  0  0  0  0  0  0  0  0
    3.0009    1.8005    0.0000 C   0  0  0  0  0  0  0  0  0  0  0  0
    0.5001    0.9503    0.0000 C   0  0  0  0  0  0  0  0  0  0  0  0
    1.5004    0.0000    0.0000 C   0  0  0  0  0  0  0  0  0  0  0  0
    1.5004    2.0006    0.0000 O   0  0  0  0  0  0  0  0  0  0  0  0
    4.0012    1.8005    0.0000 C   0  0  0  0  0  0  0  0  0  0  0  0
    0.0000    0.1000    0.0000 C   0  0  0  0  0  0  0  0  0  0  0  0
  1  2  1  0  0  0  0 
  1  3  1  0  0  0  0 
  2  4  1  0  0  0  0 
  2  5  1  0  0  0  0 
  2  6  1  0  0  0  0 
  3  7  1  0  0  0  0 
  4  8  1  0  0  0  0 
M  END
> <Name>
3-METHYL-3-HEXANOL

> <Source>
NIST2DMolFile

> <Tox>
0.292

> <CAS>
597-96-6

$$$$

  CDK

  5  4  0  0  0  0  0  0  0  0999 V2000
    1.7918    2.1713    2.7231 O   0  0  0  0  0  0  0  0  0  0  0  0
    1.6836    3.4761    2.2168 C   0  0  0  0  0  0  0  0  0  0  0  0
    2.0897    1.1420    1.7864 C   0  0  0  0  0  0  0  0  0  0  0  0
    3.4503    1.3074    1.1167 C   0  0  0  0  0  0  0  0  0  0  0  0
    0.9949    0.9396    0.7435 C   0  0  0  0  0  0  0  0  0  0  0  0
  1  2  1  0  0  0  0 
  1  3  1  0  0  0  0 
  3  4  1  0  0  0  0 
  3  5  1  0  0  0  0 
M  END
> <Name>
METHYL ISOPROPYL ETHER

> <Source>
NIST3DMolFile

> <Tox>
2.782

> <CAS>
598-53-8

$$$$

  CDK

  6  5  0  0  0  0  0  0  0  0999 V2000
    1.8697    1.9366    3.4047 C   0  0  0  0  0  0  0  0  0  0  0  0
    2.7381    1.9086    2.1212 C   0  0  0  0  0  0  0  0  0  0  0  0
    0.7084    2.9190    3.2433 C   0  0  0  0  0  0  0  0  0  0  0  0
    2.6174    2.2246    4.5639 O   0  0  0  0  0  0  0  0  0  0  0  0
    1.9102    1.4079    0.9480 C   0  0  0  0  0  0  0  0  0  0  0  0
    3.9659    1.0315    2.2964 C   0  0  0  0  0  0  0  0  0  0  0  0
  1  2  1  0  0  0  0 
  1  3  1  0  0  0  0 
  1  4  1  0  0  0  0 
  2  5  1  0  0  0  0 
  2  6  1  0  0  0  0 
M  END
> <Name>
3-METHYL-2-BUTANOL

> <Source>
NIST3DMolFile

> <Tox>
0.961

> <CAS>
598-75-4

$$$$

  CDK

  9  9  0  0  0  0  0  0  0  0999 V2000
   -2.3649    0.6160    0.0242 O   0  0  0  0  0  0  0  0  0  0  0  0
   -1.2578    0.0735    0.0029 C   0  0  0  0  0  0  0  0  0  0  0  0
   -0.0258    0.7705   -0.0178 N   0  0  0  0  0  0  0  0  0  0  0  0
   -1.1366   -1.3098    0.0005 N   0  0  0  0  0  0  0  0  0  0  0  0
    1.2386    0.1596    0.0022 C   0  0  0  0  0  0  0  0  0  0  0  0
   -0.0540    2.2280   -0.0236 C   0  0  0  0  0  0  0  0  0  0  0  0
    0.0589   -1.9662   -0.0090 C   0  0  0  0  0  0  0  0  0  0  0  0
    2.3167    0.7502    0.0294 O   0  0  0  0  0  0  0  0  0  0  0  0
    1.2249   -1.3218   -0.0088 C   0  0  0  0  0  0  0  0  0  0  0  0
  1  2  2  0  0  0  0 
  3  2  1  0  0  0  0 
  4  2  1  0  0  0  0 
  3  5  1  0  0  0  0 
  3  6  1  0  0  0  0 
  4  7  1  0  0  0  0 
  8  5  2  0  0  0  0 
  5  9  1  0  0  0  0 
  9  7  2  0  0  0  0 
M  END
> <Name>
3-Methyluracil

> <Source>
Chemidplus3DMolFile

> <Tox>
-3.148

> <CAS>
608-34-4

$$$$

  CDK

 11 12  0  0  0  0  0  0  0  0999 V2000
    2.5864    1.9896    0.0000 C   0  0  0  0  0  0  0  0  0  0  0  0
    2.5864    2.9844    0.0000 N   0  0  0  0  0  0  0  0  0  0  0  0
    1.7409    1.4922    0.0000 C   0  0  0  0  0  0  0  0  0  0  0  0
    3.4818    1.4922    0.0000 C   0  0  0  0  0  0  0  0  0  0  0  0
    1.7409    0.4974    0.0000 C   0  0  0  0  0  0  0  0  0  0  0  0
    0.8953    1.9896    0.0000 C   0  0  0  0  0  0  0  0  0  0  0  0
    3.4818    0.4974    0.0000 C   0  0  0  0  0  0  0  0  0  0  0  0
    2.5864    0.0000    0.0000 C   0  0  0  0  0  0  0  0  0  0  0  0
    0.8953    0.0000    0.0000 N   0  0  0  0  0  0  0  0  0  0  0  0
    0.0000    1.4922    0.0000 C   0  0  0  0  0  0  0  0  0  0  0  0
    0.0000    0.4974    0.0000 C   0  0  0  0  0  0  0  0  0  0  0  0
  1  2  1  0  0  0  0 
  3  1  2  0  0  0  0 
  1  4  1  0  0  0  0 
  3  5  1  0  0  0  0 
  6  3  1  0  0  0  0 
  4  7  2  0  0  0  0 
  8  5  2  0  0  0  0 
  5  9  1  0  0  0  0 
 10  6  2  0  0  0  0 
  7  8  1  0  0  0  0 
  9 11  2  0  0  0  0 
 11 10  1  0  0  0  0 
M  END
> <Name>
5-AMINOQUINOLINE

> <Source>
NIST2DMolFile

> <Tox>
-4.767

> <CAS>
611-34-7

$$$$

  CDK

 14 15  0  0  0  0  0  0  0  0999 V2000
   -0.0183   -1.1616    0.6483 C   0  0  0  0  0  0  0  0  0  0  0  0
   -0.0346   -2.5434    0.0079 C   0  0  0  0  0  0  0  0  0  0  0  0
   -1.2385   -0.3775    0.2375 C   0  0  0  0  0  0  0  0  0  0  0  0
    1.2355   -0.3945    0.3177 C   0  0  0  0  0  0  0  0  0  0  0  0
   -2.1951   -0.0402    1.1968 C   0  0  0  0  0  0  0  0  0  0  0  0
   -1.4355    0.0098   -1.0891 C   0  0  0  0  0  0  0  0  0  0  0  0
    1.8961   -0.5775   -0.8983 C   0  0  0  0  0  0  0  0  0  0  0  0
    1.7432    0.5238    1.2390 C   0  0  0  0  0  0  0  0  0  0  0  0
   -3.3324    0.6720    0.8322 C   0  0  0  0  0  0  0  0  0  0  0  0
   -2.5732    0.7213   -1.4507 C   0  0  0  0  0  0  0  0  0  0  0  0
    3.0456    0.1464   -1.1905 C   0  0  0  0  0  0  0  0  0  0  0  0
    2.8927    1.2480    0.9439 C   0  0  0  0  0  0  0  0  0  0  0  0
   -3.5239    1.0531   -0.4911 C   0  0  0  0  0  0  0  0  0  0  0  0
    3.5453    1.0613   -0.2700 C   0  0  0  0  0  0  0  0  0  0  0  0
  1  2  1  0  0  0  0 
  1  3  1  0  0  0  0 
  1  4  1  0  0  0  0 
  3  5  1  0  0  0  0 
  3  6  2  0  0  0  0 
  4  7  1  0  0  0  0 
  4  8  2  0  0  0  0 
  5  9  2  0  0  0  0 
 10  6  1  0  0  0  0 
  7 11  2  0  0  0  0 
 12  8  1  0  0  0  0 
  9 13  1  0  0  0  0 
 13 10  2  0  0  0  0 
 11 14  1  0  0  0  0 
 14 12  2  0  0  0  0 
M  END
> <Name>
1,1-DIPHENYLETHANE

> <Source>
DougDB3DMolFile

> <Tox>
-1.932

> <CAS>
612-00-0

$$$$

  CDK

 15 17  0  0  0  0  0  0  0  0999 V2000
    0.0000    0.0000    0.0000 C   0  0  0  0  0  0  0  0  0  0  0  0
   -1.3400    0.4400    0.5200 C   0  0  0  0  0  0  0  0  0  0  0  0
   -2.5000   -0.2000    0.0600 C   0  0  0  0  0  0  0  0  0  0  0  0
   -1.4200    1.4800    1.4600 C   0  0  0  0  0  0  0  0  0  0  0  0
   -3.7600    0.2200    0.5400 C   0  0  0  0  0  0  0  0  0  0  0  0
   -2.6600    1.9000    1.9600 C   0  0  0  0  0  0  0  0  0  0  0  0
   -3.8400    1.2800    1.5000 C   0  0  0  0  0  0  0  0  0  0  0  0
   -4.9200   -0.4200    0.0800 C   0  0  0  0  0  0  0  0  0  0  0  0
   -5.0800    1.7000    1.9800 C   0  0  0  0  0  0  0  0  0  0  0  0
   -6.1800    0.0000    0.5800 C   0  0  0  0  0  0  0  0  0  0  0  0
   -6.2600    1.0600    1.5400 C   0  0  0  0  0  0  0  0  0  0  0  0
   -7.3400   -0.6000    0.1200 C   0  0  0  0  0  0  0  0  0  0  0  0
   -7.5000    1.4800    2.0200 C   0  0  0  0  0  0  0  0  0  0  0  0
   -8.6000   -0.1800    0.6000 C   0  0  0  0  0  0  0  0  0  0  0  0
   -8.6800    0.8600    1.5400 C   0  0  0  0  0  0  0  0  0  0  0  0
  1  2  1  0  0  0  0 
  2  3  2  0  0  0  0 
  2  4  1  0  0  0  0 
  3  5  1  0  0  0  0 
  6  4  2  0  0  0  0 
  5  7  2  0  0  0  0 
  5  8  1  0  0  0  0 
  7  6  1  0  0  0  0 
  7  9  1  0  0  0  0 
 10  8  2  0  0  0  0 
  9 11  2  0  0  0  0 
 12 10  1  0  0  0  0 
 11 10  1  0  0  0  0 
 11 13  1  0  0  0  0 
 14 12  2  0  0  0  0 
 13 15  2  0  0  0  0 
 15 14  1  0  0  0  0 
M  END
> <Name>
2-METHYLANTHRACENE

> <Source>
NIH3DMolFile

> <Tox>
-5.272

> <CAS>
613-12-7

$$$$

  CDK

 10 10  0  0  0  0  0  0  0  0999 V2000
    1.5607    2.5173    0.0000 O   0  0  0  0  0  0  0  0  0  0  0  0
    0.9566    3.3229    0.0000 C   0  0  0  0  0  0  0  0  0  0  0  0
    0.9566    1.7118    0.0000 C   0  0  0  0  0  0  0  0  0  0  0  0
    0.0000    2.9704    0.0000 C   0  0  0  0  0  0  0  0  0  0  0  0
    1.3090    0.7552    0.0000 C   0  0  0  0  0  0  0  0  0  0  0  0
    0.0000    2.0138    0.0000 C   0  0  0  0  0  0  0  0  0  0  0  0
    2.2152    0.5538    0.0000 O   0  0  0  0  0  0  0  0  0  0  0  0
    0.6042    0.0000    0.0000 O   0  0  0  0  0  0  0  0  0  0  0  0
    2.8697    1.3090    0.0000 C   0  0  0  0  0  0  0  0  0  0  0  0
    3.8767    1.1076    0.0000 C   0  0  0  0  0  0  0  0  0  0  0  0
  1  2  1  0  0  0  0 
  3  1  1  0  0  0  0 
  2  4  2  0  0  0  0 
  3  5  1  0  0  0  0 
  6  3  2  0  0  0  0 
  4  6  1  0  0  0  0 
  5  7  1  0  0  0  0 
  5  8  2  0  0  0  0 
  7  9  1  0  0  0  0 
  9 10  1  0  0  0  0 
M  END
> <Name>
FUROIC ACID, ETHYL ESTER

> <Source>
NIST2DMolFile

> <Tox>
-0.472

> <CAS>
614-99-3

$$$$

  CDK

  9  8  0  0  0  0  0  0  0  0999 V2000
    0.0000   -1.1552    0.0000 C   0  0  0  0  0  0  0  0  0  0  0  0
    0.6644   -2.3044    0.0000 C   0  0  0  0  0  0  0  0  0  0  0  0
    1.9932   -2.3044    0.0000 O   0  0  0  0  0  0  0  0  0  0  0  0
    2.6576   -1.1552    0.0000 C   0  0  0  0  0  0  0  0  0  0  0  0
    1.9932   -0.0000    0.0000 O   0  0  0  0  0  0  0  0  0  0  0  0
    3.9924   -1.1552    0.0000 N   0  0  0  0  0  0  0  0  0  0  0  0
    4.6568   -2.3044    0.0000 C   0  0  0  0  0  0  0  0  0  0  0  0
    4.6568   -0.0000    0.0000 N   0  0  0  0  0  0  0  0  0  0  0  0
    5.9855   -0.0000    0.0000 O   0  0  0  0  0  0  0  0  0  0  0  0
  1  2  1  0  0  0  0 
  2  3  1  0  0  0  0 
  3  4  1  0  0  0  0 
  4  5  2  0  0  0  0 
  4  6  1  0  0  0  0 
  6  7  1  0  0  0  0 
  6  8  1  0  0  0  0 
  8  9  2  0  0  0  0 
M  END
> <Name>
ETHYL N-METHYLNITROSOCARBAMATE

> <Source>
DSSTox2DMolFile

> <Tox>
0.072

> <CAS>
615-53-2

$$$$

  CDK

  9  9  0  0  0  0  0  0  0  0999 V2000
   -1.5608   -1.7866   -0.0010 O   0  0  0  0  0  0  0  0  0  0  0  0
   -0.7630   -0.8468    0.0002 C   0  0  0  0  0  0  0  0  0  0  0  0
   -1.1303    0.5078    0.0001 N   0  0  0  0  0  0  0  0  0  0  0  0
    0.6201   -1.0712    0.0005 N   0  0  0  0  0  0  0  0  0  0  0  0
   -0.1867    1.5143   -0.0007 C   0  0  0  0  0  0  0  0  0  0  0  0
   -2.5452    0.8603    0.0010 C   0  0  0  0  0  0  0  0  0  0  0  0
    1.6175   -0.1085    0.0001 C   0  0  0  0  0  0  0  0  0  0  0  0
    1.1282    1.2848   -0.0006 C   0  0  0  0  0  0  0  0  0  0  0  0
    2.8201   -0.3539    0.0004 O   0  0  0  0  0  0  0  0  0  0  0  0
  1  2  2  0  0  0  0 
  3  2  1  0  0  0  0 
  4  2  1  0  0  0  0 
  3  5  1  0  0  0  0 
  3  6  1  0  0  0  0 
  4  7  1  0  0  0  0 
  5  8  2  0  0  0  0 
  9  7  2  0  0  0  0 
  8  7  1  0  0  0  0 
M  END
> <Name>
1-METHYLURACIL

> <Source>
Chemidplus3DMolFile

> <Tox>
-3.293

> <CAS>
615-77-0

$$$$

  CDK

  9  9  0  0  0  0  0  0  0  0999 V2000
    1.0361    2.8804    0.9196 C   0  0  0  0  0  0  0  0  0  0  0  0
    2.0066    1.7216    0.9235 C   0  0  0  0  0  0  0  0  0  0  0  0
    3.4582    2.0838    0.9223 C   0  0  0  0  0  0  0  0  0  0  0  0
    3.9171    3.3994    0.9190 C   0  0  0  0  0  0  0  0  0  0  0  0
    4.3874    1.0377    0.9244 C   0  0  0  0  0  0  0  0  0  0  0  0
    5.2861    3.6728    0.9170 C   0  0  0  0  0  0  0  0  0  0  0  0
    5.7492    1.3074    0.9231 C   0  0  0  0  0  0  0  0  0  0  0  0
    5.7757    5.0758    0.9106 C   0  0  0  0  0  0  0  0  0  0  0  0
    6.2024    2.6215    0.9197 C   0  0  0  0  0  0  0  0  0  0  0  0
  1  2  1  0  0  0  0 
  2  3  1  0  0  0  0 
  3  4  2  0  0  0  0 
  5  3  1  0  0  0  0 
  4  6  1  0  0  0  0 
  7  5  2  0  0  0  0 
  6  8  1  0  0  0  0 
  6  9  2  0  0  0  0 
  9  7  1  0  0  0  0 
M  END
> <Name>
M-ETHYLTOLUENE

> <Source>
NIST3DMolFile

> <Tox>
0.483

> <CAS>
620-14-4

$$$$

  CDK

  9  9  0  0  0  0  0  0  0  0999 V2000
    2.3042   -2.6614    0.0000 C   0  0  0  0  0  0  0  0  0  0  0  0
    1.1521   -1.9989    0.0000 C   0  0  0  0  0  0  0  0  0  0  0  0
    3.4563   -1.9989    0.0000 C   0  0  0  0  0  0  0  0  0  0  0  0
    0.0000   -2.6614    0.0000 O   0  0  0  0  0  0  0  0  0  0  0  0
    1.1521   -0.6682    0.0000 C   0  0  0  0  0  0  0  0  0  0  0  0
    3.4563   -0.6682    0.0000 C   0  0  0  0  0  0  0  0  0  0  0  0
    4.6084   -2.6614    0.0000 C   0  0  0  0  0  0  0  0  0  0  0  0
    2.3042   -0.0000    0.0000 C   0  0  0  0  0  0  0  0  0  0  0  0
    5.7605   -1.9989    0.0000 C   0  0  0  0  0  0  0  0  0  0  0  0
  1  2  2  0  0  0  0 
  1  3  1  0  0  0  0 
  2  4  1  0  0  0  0 
  2  5  1  0  0  0  0 
  6  3  2  0  0  0  0 
  3  7  1  0  0  0  0 
  5  8  2  0  0  0  0 
  8  6  1  0  0  0  0 
  7  9  1  0  0  0  0 
M  END
> <Name>
M-ETHYLPHENOL

> <Source>
DSSTox2DMolFile

> <Tox>
-1.301

> <CAS>
620-17-7

$$$$

  CDK

 11 11  0  0  0  0  0  0  0  0999 V2000
    3.7760   -0.4278   -0.2345 O   0  0  0  0  0  0  0  0  0  0  0  0
    2.5095   -0.2054    0.2060 C   0  0  0  0  0  0  0  0  0  0  0  0
    2.2041   -0.2210    1.3905 O   0  0  0  0  0  0  0  0  0  0  0  0
    1.5514    0.0591   -0.9390 C   0  0  0  0  0  0  0  0  0  0  0  0
    0.1397    0.2543   -0.4999 C   0  0  0  0  0  0  0  0  0  0  0  0
   -0.7187   -0.8409   -0.4031 C   0  0  0  0  0  0  0  0  0  0  0  0
   -0.3222    1.5324   -0.1858 C   0  0  0  0  0  0  0  0  0  0  0  0
   -2.0391   -0.6579    0.0077 C   0  0  0  0  0  0  0  0  0  0  0  0
   -1.6426    1.7154    0.2252 C   0  0  0  0  0  0  0  0  0  0  0  0
   -2.5010    0.6202    0.3218 C   0  0  0  0  0  0  0  0  0  0  0  0
   -2.9572   -1.8285    0.1111 C   0  0  0  0  0  0  0  0  0  0  0  0
  1  2  1  0  0  0  0 
  3  2  2  0  0  0  0 
  4  2  1  0  0  0  0 
  5  4  1  0  0  0  0 
  5  6  1  0  0  0  0 
  5  7  2  0  0  0  0 
  8  6  2  0  0  0  0 
  7  9  1  0  0  0  0 
  8 10  1  0  0  0  0 
  8 11  1  0  0  0  0 
 10  9  2  0  0  0  0 
M  END
> <Name>
M-METHYLPHENYLACETIC ACID

> <Source>
Chemidplus3DMolFile

> <Tox>
-1.227

> <CAS>
621-36-3

$$$$

  CDK

  9  9  0  0  0  0  0  0  0  0999 V2000
    3.9905   -1.1529    0.0000 C   0  0  0  0  0  0  0  0  0  0  0  0
    3.3155   -2.3059    0.0000 C   0  0  0  0  0  0  0  0  0  0  0  0
    3.3155   -0.0000    0.0000 C   0  0  0  0  0  0  0  0  0  0  0  0
    5.3167   -1.1529    0.0000 C   0  0  0  0  0  0  0  0  0  0  0  0
    1.9833   -2.3059    0.0000 C   0  0  0  0  0  0  0  0  0  0  0  0
    1.9833   -0.0000    0.0000 C   0  0  0  0  0  0  0  0  0  0  0  0
    5.9738   -0.0000    0.0000 C   0  0  0  0  0  0  0  0  0  0  0  0
    1.3322   -1.1529    0.0000 C   0  0  0  0  0  0  0  0  0  0  0  0
    0.0000   -1.1529    0.0000 C   0  0  0  0  0  0  0  0  0  0  0  0
  1  2  2  0  0  0  0 
  1  3  1  0  0  0  0 
  1  4  1  0  0  0  0 
  2  5  1  0  0  0  0 
  6  3  2  0  0  0  0 
  4  7  1  0  0  0  0 
  5  8  2  0  0  0  0 
  8  6  1  0  0  0  0 
  8  9  1  0  0  0  0 
M  END
> <Name>
P-ETHYLTOLUENE

> <Source>
DSSTox2DMolFile

> <Tox>
0.477

> <CAS>
622-96-8

$$$$

  CDK

  7  6  0  0  0  0  0  0  0  0999 V2000
    1.7073    0.0000    0.0000 C   0  0  0  0  0  0  0  0  0  0  0  0
    2.6112    0.5022    0.0000 C   0  0  0  0  0  0  0  0  0  0  0  0
    0.8537    0.5022    0.0000 C   0  0  0  0  0  0  0  0  0  0  0  0
    3.4649    0.0000    0.0000 O   0  0  0  0  0  0  0  0  0  0  0  0
    2.6112    1.5065    0.0000 O   0  0  0  0  0  0  0  0  0  0  0  0
    0.0000    0.0000    0.0000 C   0  0  0  0  0  0  0  0  0  0  0  0
    4.3186    0.5022    0.0000 C   0  0  0  0  0  0  0  0  0  0  0  0
  1  2  1  0  0  0  0 
  1  3  1  0  0  0  0 
  2  4  1  0  0  0  0 
  2  5  2  0  0  0  0 
  3  6  1  0  0  0  0 
  4  7  1  0  0  0  0 
M  END
> <Name>
METHYLBUTYRATE

> <Source>
NIST2DMolFile

> <Tox>
1.509

> <CAS>
623-42-7

$$$$

  CDK

  8  8  0  0  0  0  0  0  0  0999 V2000
    0.5543    2.8316    1.9394 C   0  0  0  0  0  0  0  0  0  0  0  0
    2.0501    3.0166    2.1246 C   0  0  0  0  0  0  0  0  0  0  0  0
    2.8055    2.5968    0.8653 C   0  0  0  0  0  0  0  0  0  0  0  0
    2.5491    2.2082    3.3207 C   0  0  0  0  0  0  0  0  0  0  0  0
    4.3051    2.7695    1.0422 C   0  0  0  0  0  0  0  0  0  0  0  0
    4.0472    2.3792    3.5111 C   0  0  0  0  0  0  0  0  0  0  0  0
    4.8504    2.0232    2.2599 C   0  0  0  0  0  0  0  0  0  0  0  0
    4.8987    0.5222    2.0278 C   0  0  0  0  0  0  0  0  0  0  0  0
  1  2  1  0  0  0  0 
  3  2  1  0  0  0  0 
  4  2  1  0  0  0  0 
  3  5  1  0  0  0  0 
  6  4  1  0  0  0  0 
  5  7  1  0  0  0  0 
  6  7  1  0  0  0  0 
  7  8  1  0  0  0  0 
M  END
> <Name>
1,4-DIMETHYLCYCLOHEXANE (CIS)

> <Source>
NIST3DMolFile

> <Tox>
1.253

> <CAS>
624-29-3

$$$$

  CDK

  4  3  0  0  0  0  0  0  0  0999 V2000
    0.0000   -0.0000    0.0000 C   0  0  0  0  0  0  0  0  0  0  0  0
    1.1483   -0.6690    0.0000 C   0  0  0  0  0  0  0  0  0  0  0  0
    2.3001   -0.0000    0.0000 C   0  0  0  0  0  0  0  0  0  0  0  0
    3.4485   -0.6690    0.0000 C   0  0  0  0  0  0  0  0  0  0  0  0
  1  2  1  0  0  0  0 
  2  3  2  0  0  0  0 
  3  4  1  0  0  0  0 
M  END
> <Name>
TRANS-2-BUTENE

> <Source>
DSSTox2DMolFile

> <Tox>
3.246

> <CAS>
624-64-6

$$$$

  CDK

  4  3  0  0  0  0  0  0  0  0999 V2000
    1.9104    2.4836    2.1996 S   0  0  0  0  0  0  0  0  0  0  0  0
    3.6346    2.1691    1.7059 C   0  0  0  0  0  0  0  0  0  0  0  0
    1.0524    2.6341    0.6232 C   0  0  0  0  0  0  0  0  0  0  0  0
    3.8828    0.8059    1.1105 C   0  0  0  0  0  0  0  0  0  0  0  0
  1  2  1  0  0  0  0 
  1  3  1  0  0  0  0 
  2  4  1  0  0  0  0 
M  END
> <Name>
ETHYL METHYL SULFIDE

> <Source>
NIST3DMolFile

> <Tox>
2.204

> <CAS>
624-89-5

$$$$

  CDK

  6  5  0  0  0  0  0  0  0  0999 V2000
    1.7391    1.4906    0.0000 C   0  0  0  0  0  0  0  0  0  0  0  0
    0.8944    0.9938    0.0000 C   0  0  0  0  0  0  0  0  0  0  0  0
    2.5838    0.9938    0.0000 C   0  0  0  0  0  0  0  0  0  0  0  0
    0.8944    0.0000    0.0000 C   0  0  0  0  0  0  0  0  0  0  0  0
    0.0000    1.4906    0.0000 Cl  0  0  0  0  0  0  0  0  0  0  0  0
    3.4781    1.4906    0.0000 C   0  0  0  0  0  0  0  0  0  0  0  0
  1  2  1  0  0  0  0 
  1  3  1  0  0  0  0 
  2  4  1  0  0  0  0 
  2  5  1  0  0  0  0 
  3  6  1  0  0  0  0 
M  END
> <Name>
2-CHLOROPENTANE

> <Source>
NIST2DMolFile

> <Tox>
1.688

> <CAS>
625-29-6

$$$$

  CDK

  6  5  0  0  0  0  0  0  0  0999 V2000
    2.9147    1.8521    1.9411 O   0  0  0  0  0  0  0  0  0  0  0  0
    2.0628    2.7376    1.2491 C   0  0  0  0  0  0  0  0  0  0  0  0
    3.5311    0.6941    1.1855 N   0  0  0  0  0  0  0  0  0  0  0  0
    0.6607    2.1925    1.0500 C   0  0  0  0  0  0  0  0  0  0  0  0
    4.1065    0.0000    1.9587 O   0  0  0  0  0  0  0  0  0  0  0  0
    3.3842    0.6436    0.0000 O   0  0  0  0  0  0  0  0  0  0  0  0
  1  2  1  0  0  0  0 
  1  3  1  0  0  0  0 
  2  4  1  0  0  0  0 
  3  5  2  0  0  0  0 
  3  6  2  0  0  0  0 
M  END
> <Name>
ETHYLNITRATE

> <Source>
NIST3DMolFile

> <Tox>
1.806

> <CAS>
625-58-1

$$$$

  CDK

  7  6  0  0  0  0  0  0  0  0999 V2000
    3.0021    1.7300    0.0000 C   0  0  0  0  0  0  0  0  0  0  0  0
    2.5442    0.8650    0.0000 C   0  0  0  0  0  0  0  0  0  0  0  0
    3.0021    0.0000    0.0000 O   0  0  0  0  0  0  0  0  0  0  0  0
    1.4756    0.8650    0.0000 N   0  0  0  0  0  0  0  0  0  0  0  0
    0.9668    1.7300    0.0000 C   0  0  0  0  0  0  0  0  0  0  0  0
    0.0000    1.7300    0.0000 C   0  0  0  0  0  0  0  0  0  0  0  0
    1.4756    2.5950    0.0000 O   0  0  0  0  0  0  0  0  0  0  0  0
  1  2  1  0  0  0  0 
  2  3  2  0  0  0  0 
  2  4  1  0  0  0  0 
  4  5  1  0  0  0  0 
  5  6  1  0  0  0  0 
  5  7  2  0  0  0  0 
M  END
> <Name>
DIACETAMIDE

> <Source>
NIST2DMolFile

> <Tox>
-2.004

> <CAS>
625-77-4

$$$$

  CDK

 12 11  0  0  0  0  0  0  0  0999 V2000
    5.7573   -2.6609    0.0000 C   0  0  0  0  0  0  0  0  0  0  0  0
    4.6042   -1.9997    0.0000 C   0  0  0  0  0  0  0  0  0  0  0  0
    6.9103   -1.9997    0.0000 C   0  0  0  0  0  0  0  0  0  0  0  0
    3.4592   -2.6609    0.0000 C   0  0  0  0  0  0  0  0  0  0  0  0
    6.9103   -0.6693    0.0000 O   0  0  0  0  0  0  0  0  0  0  0  0
    8.0634   -2.6609    0.0000 O   0  0  0  0  0  0  0  0  0  0  0  0
    2.3061   -1.9997    0.0000 C   0  0  0  0  0  0  0  0  0  0  0  0
    8.0634   -3.9914    0.0000 C   0  0  0  0  0  0  0  0  0  0  0  0
    2.3061   -0.6693    0.0000 C   0  0  0  0  0  0  0  0  0  0  0  0
    3.4592   -0.0000    0.0000 O   0  0  0  0  0  0  0  0  0  0  0  0
    1.1531   -0.0000    0.0000 O   0  0  0  0  0  0  0  0  0  0  0  0
    0.0000   -0.6693    0.0000 C   0  0  0  0  0  0  0  0  0  0  0  0
  1  2  1  0  0  0  0 
  1  3  1  0  0  0  0 
  2  4  1  0  0  0  0 
  3  5  2  0  0  0  0 
  3  6  1  0  0  0  0 
  4  7  1  0  0  0  0 
  6  8  1  0  0  0  0 
  7  9  1  0  0  0  0 
  9 10  2  0  0  0  0 
  9 11  1  0  0  0  0 
 11 12  1  0  0  0  0 
M  END
> <Name>
HEXANEDIOIC ACID, DIMETHYL ESTER

> <Source>
DSSTox2DMolFile

> <Tox>
-1.219

> <CAS>
627-93-0

$$$$

  CDK

  6  5  0  0  0  0  0  0  0  0999 V2000
    2.9810    1.7179    0.0000 C   0  0  0  0  0  0  0  0  0  0  0  0
    2.5263    0.8589    0.0000 C   0  0  0  0  0  0  0  0  0  0  0  0
    3.9916    1.7179    0.0000 C   0  0  0  0  0  0  0  0  0  0  0  0
    1.5158    0.8589    0.0000 C   0  0  0  0  0  0  0  0  0  0  0  0
    1.0105    0.0000    0.0000 C   0  0  0  0  0  0  0  0  0  0  0  0
    0.0000    0.0000    0.0000 I   0  0  0  0  0  0  0  0  0  0  0  0
  1  2  1  0  0  0  0 
  1  3  1  0  0  0  0 
  2  4  1  0  0  0  0 
  4  5  1  0  0  0  0 
  5  6  1  0  0  0  0 
M  END
> <Name>
1-IODOPENTANE

> <Source>
NIST2DMolFile

> <Tox>
0.642

> <CAS>
628-17-1

$$$$

  CDK

  6  5  0  0  0  0  0  0  0  0999 V2000
    3.7470    1.6883    3.1439 C   0  0  0  0  0  0  0  0  0  0  0  0
    2.1954    1.0837    3.8766 S   0  0  0  0  0  0  0  0  0  0  0  0
    3.8866    1.4154    1.6577 C   0  0  0  0  0  0  0  0  0  0  0  0
    0.9650    2.2348    3.2394 C   0  0  0  0  0  0  0  0  0  0  0  0
    5.2150    1.9128    1.1054 C   0  0  0  0  0  0  0  0  0  0  0  0
    6.3793    1.0342    1.5053 C   0  0  0  0  0  0  0  0  0  0  0  0
  1  2  1  0  0  0  0 
  1  3  1  0  0  0  0 
  2  4  1  0  0  0  0 
  3  5  1  0  0  0  0 
  5  6  1  0  0  0  0 
M  END
> <Name>
2-THIAHEXANE

> <Source>
NIST3DMolFile

> <Tox>
1.193

> <CAS>
628-29-5

$$$$

  CDK

  6  5  0  0  0  0  0  0  0  0999 V2000
    3.1079    1.7452    1.0645 O   0  0  0  0  0  0  0  0  0  0  0  0
    4.4441    1.2694    1.1114 C   0  0  0  0  0  0  0  0  0  0  0  0
    2.1504    0.7063    0.9251 C   0  0  0  0  0  0  0  0  0  0  0  0
    5.3490    2.4893    1.2632 C   0  0  0  0  0  0  0  0  0  0  0  0
    0.7827    1.3612    0.8832 C   0  0  0  0  0  0  0  0  0  0  0  0
    6.8002    2.0698    1.3208 C   0  0  0  0  0  0  0  0  0  0  0  0
  1  2  1  0  0  0  0 
  1  3  1  0  0  0  0 
  2  4  1  0  0  0  0 
  3  5  1  0  0  0  0 
  4  6  1  0  0  0  0 
M  END
> <Name>
ETHYL PROPYL ETHER

> <Source>
NIST3DMolFile

> <Tox>
2.258

> <CAS>
628-32-0

$$$$

  CDK

  6  6  0  0  0  0  0  0  0  0999 V2000
    1.7363    3.4486    0.8997 C   0  0  0  0  0  0  0  0  0  0  0  0
    1.0957    2.1081    0.8772 C   0  0  0  0  0  0  0  0  0  0  0  0
    3.2216    3.4048    0.8932 C   0  0  0  0  0  0  0  0  0  0  0  0
    1.7900    0.9699    0.8696 C   0  0  0  0  0  0  0  0  0  0  0  0
    3.9157    2.2666    0.8848 C   0  0  0  0  0  0  0  0  0  0  0  0
    3.2751    0.9258    0.8818 C   0  0  0  0  0  0  0  0  0  0  0  0
  2  1  1  0  0  0  0 
  1  3  1  0  0  0  0 
  4  2  2  0  0  0  0 
  3  5  2  0  0  0  0 
  6  4  1  0  0  0  0 
  5  6  1  0  0  0  0 
M  END
> <Name>
1,4-CYCLOHEXADIENE

> <Source>
NIST3DMolFile

> <Tox>
1.823

> <CAS>
628-41-1

$$$$

  CDK

  9  8  0  0  0  0  0  0  0  0999 V2000
    1.1483   -0.6745    0.0000 C   0  0  0  0  0  0  0  0  0  0  0  0
    1.1483   -1.9994    0.0000 O   0  0  0  0  0  0  0  0  0  0  0  0
    2.2965   -0.0000    0.0000 O   0  0  0  0  0  0  0  0  0  0  0  0
    0.0000   -0.0000    0.0000 C   0  0  0  0  0  0  0  0  0  0  0  0
    3.4448   -0.6745    0.0000 C   0  0  0  0  0  0  0  0  0  0  0  0
    4.5850   -0.0000    0.0000 C   0  0  0  0  0  0  0  0  0  0  0  0
    5.7333   -0.6745    0.0000 C   0  0  0  0  0  0  0  0  0  0  0  0
    6.8815   -0.0000    0.0000 C   0  0  0  0  0  0  0  0  0  0  0  0
    8.0298   -0.6745    0.0000 C   0  0  0  0  0  0  0  0  0  0  0  0
  1  2  2  0  0  0  0 
  1  3  1  0  0  0  0 
  1  4  1  0  0  0  0 
  3  5  1  0  0  0  0 
  5  6  1  0  0  0  0 
  6  7  1  0  0  0  0 
  7  8  1  0  0  0  0 
  8  9  1  0  0  0  0 
M  END
> <Name>
N-AMYL ACETATE

> <Source>
DSSTox2DMolFile

> <Tox>
0.544

> <CAS>
628-63-7

$$$$

  CDK

  7  6  0  0  0  0  0  0  0  0999 V2000
    1.1888    0.2410    0.0000 O   0  0  0  0  0  0  0  0  0  0  0  0
    2.4024   -0.4957   -0.0007 C   0  0  0  0  0  0  0  0  0  0  0  0
    0.0350   -0.5853   -0.0011 C   0  0  0  0  0  0  0  0  0  0  0  0
    3.5370    0.5113    0.0013 C   0  0  0  0  0  0  0  0  0  0  0  0
   -1.1774    0.3415   -0.0015 C   0  0  0  0  0  0  0  0  0  0  0  0
   -2.4650   -0.4666    0.0022 C   0  0  0  0  0  0  0  0  0  0  0  0
   -3.6803    0.4329   -0.0001 C   0  0  0  0  0  0  0  0  0  0  0  0
  1  2  1  0  0  0  0 
  1  3  1  0  0  0  0 
  2  4  1  0  0  0  0 
  3  5  1  0  0  0  0 
  5  6  1  0  0  0  0 
  6  7  1  0  0  0  0 
M  END
> <Name>
BUTYL ETHYL ETHER

> <Source>
DougDB3DMolFile

> <Tox>
1.713

> <CAS>
628-81-9

$$$$

  CDK

  8  7  0  0  0  0  0  0  0  0999 V2000
    8.0744   -0.0000    0.0000 Br  0  0  0  0  0  0  0  0  0  0  0  0
    6.9197   -0.6621    0.0000 C   0  0  0  0  0  0  0  0  0  0  0  0
    5.7651   -0.0000    0.0000 C   0  0  0  0  0  0  0  0  0  0  0  0
    4.6105   -0.6621    0.0000 C   0  0  0  0  0  0  0  0  0  0  0  0
    3.4639   -0.0000    0.0000 C   0  0  0  0  0  0  0  0  0  0  0  0
    2.3093   -0.6621    0.0000 C   0  0  0  0  0  0  0  0  0  0  0  0
    1.1546   -0.0000    0.0000 C   0  0  0  0  0  0  0  0  0  0  0  0
    0.0000   -0.6621    0.0000 C   0  0  0  0  0  0  0  0  0  0  0  0
  1  2  1  0  0  0  0 
  2  3  1  0  0  0  0 
  3  4  1  0  0  0  0 
  4  5  1  0  0  0  0 
  5  6  1  0  0  0  0 
  6  7  1  0  0  0  0 
  7  8  1  0  0  0  0 
M  END
> <Name>
1-BROMOHEPTANE

> <Source>
DSSTox2DMolFile

> <Tox>
0.104

> <CAS>
629-04-9

$$$$

  CDK

  8  7  0  0  0  0  0  0  0  0999 V2000
    0.0000    0.0000    0.0000 C   0  0  0  0  0  0  0  0  0  0  0  0
    0.8532    0.5019    0.0000 C   0  0  0  0  0  0  0  0  0  0  0  0
    1.7567    0.0000    0.0000 C   0  0  0  0  0  0  0  0  0  0  0  0
    2.6099    0.5019    0.0000 C   0  0  0  0  0  0  0  0  0  0  0  0
    3.4130    0.0000    0.0000 C   0  0  0  0  0  0  0  0  0  0  0  0
    4.3164    0.5019    0.0000 C   0  0  0  0  0  0  0  0  0  0  0  0
    5.1696    0.0000    0.0000 C   0  0  0  0  0  0  0  0  0  0  0  0
    6.0229    0.5521    0.0000 Cl  0  0  0  0  0  0  0  0  0  0  0  0
  1  2  1  0  0  0  0 
  2  3  1  0  0  0  0 
  3  4  1  0  0  0  0 
  4  5  1  0  0  0  0 
  5  6  1  0  0  0  0 
  6  7  1  0  0  0  0 
  7  8  1  0  0  0  0 
M  END
> <Name>
1-CHLOROHEPTANE

> <Source>
NIST2DMolFile

> <Tox>
0.450

> <CAS>
629-06-1

$$$$

  CDK

  8  7  0  0  0  0  0  0  0  0999 V2000
    5.7651   -0.0000    0.0000 O   0  0  0  0  0  0  0  0  0  0  0  0
    4.6105   -0.6621    0.0000 C   0  0  0  0  0  0  0  0  0  0  0  0
    6.9197   -0.6621    0.0000 C   0  0  0  0  0  0  0  0  0  0  0  0
    3.4639   -0.0000    0.0000 C   0  0  0  0  0  0  0  0  0  0  0  0
    8.0744   -0.0000    0.0000 C   0  0  0  0  0  0  0  0  0  0  0  0
    2.3093   -0.6621    0.0000 O   0  0  0  0  0  0  0  0  0  0  0  0
    1.1546   -0.0000    0.0000 C   0  0  0  0  0  0  0  0  0  0  0  0
    0.0000   -0.6621    0.0000 C   0  0  0  0  0  0  0  0  0  0  0  0
  1  2  1  0  0  0  0 
  1  3  1  0  0  0  0 
  2  4  1  0  0  0  0 
  3  5  1  0  0  0  0 
  4  6  1  0  0  0  0 
  6  7  1  0  0  0  0 
  7  8  1  0  0  0  0 
M  END
> <Name>
1,2-DIETHOXYETHANE

> <Source>
DSSTox2DMolFile

> <Tox>
1.528

> <CAS>
629-14-1

$$$$

  CDK

 10  9  0  0  0  0  0  0  0  0999 V2000
    4.3473    0.4997    0.0000 S   0  0  0  0  0  0  0  0  0  0  0  0
    3.4478    0.0000    0.0000 S   0  0  0  0  0  0  0  0  0  0  0  0
    5.1968    0.0000    0.0000 C   0  0  0  0  0  0  0  0  0  0  0  0
    2.5984    0.4997    0.0000 C   0  0  0  0  0  0  0  0  0  0  0  0
    6.0462    0.4997    0.0000 C   0  0  0  0  0  0  0  0  0  0  0  0
    1.7489    0.0000    0.0000 C   0  0  0  0  0  0  0  0  0  0  0  0
    6.9457    0.0000    0.0000 C   0  0  0  0  0  0  0  0  0  0  0  0
    0.8495    0.4997    0.0000 C   0  0  0  0  0  0  0  0  0  0  0  0
    7.7951    0.4997    0.0000 C   0  0  0  0  0  0  0  0  0  0  0  0
    0.0000    0.0000    0.0000 C   0  0  0  0  0  0  0  0  0  0  0  0
  1  2  1  0  0  0  0 
  1  3  1  0  0  0  0 
  2  4  1  0  0  0  0 
  3  5  1  0  0  0  0 
  4  6  1  0  0  0  0 
  5  7  1  0  0  0  0 
  6  8  1  0  0  0  0 
  7  9  1  0  0  0  0 
  8 10  1  0  0  0  0 
M  END
> <Name>
DIBUTYL DISULFIDE

> <Source>
NIST2DMolFile

> <Tox>
-1.199

> <CAS>
629-45-8

$$$$

  CDK

 13 12  0  0  0  0  0  0  0  0999 V2000
    0.0000   -0.6741    0.0000 C   0  0  0  0  0  0  0  0  0  0  0  0
    1.1557   -0.0000    0.0000 C   0  0  0  0  0  0  0  0  0  0  0  0
    2.2838   -0.6741    0.0000 C   0  0  0  0  0  0  0  0  0  0  0  0
    3.4257   -0.0000    0.0000 C   0  0  0  0  0  0  0  0  0  0  0  0
    4.5813   -0.6741    0.0000 C   0  0  0  0  0  0  0  0  0  0  0  0
    5.7232   -0.0000    0.0000 C   0  0  0  0  0  0  0  0  0  0  0  0
    6.8789   -0.6741    0.0000 C   0  0  0  0  0  0  0  0  0  0  0  0
    8.0345   -0.0000    0.0000 C   0  0  0  0  0  0  0  0  0  0  0  0
    9.1764   -0.6741    0.0000 C   0  0  0  0  0  0  0  0  0  0  0  0
   10.3321   -0.0000    0.0000 C   0  0  0  0  0  0  0  0  0  0  0  0
   11.4740   -0.6741    0.0000 C   0  0  0  0  0  0  0  0  0  0  0  0
   12.6021   -0.0000    0.0000 C   0  0  0  0  0  0  0  0  0  0  0  0
   13.7578   -0.6741    0.0000 C   0  0  0  0  0  0  0  0  0  0  0  0
  1  2  1  0  0  0  0 
  2  3  1  0  0  0  0 
  3  4  1  0  0  0  0 
  4  5  1  0  0  0  0 
  5  6  1  0  0  0  0 
  6  7  1  0  0  0  0 
  7  8  1  0  0  0  0 
  8  9  1  0  0  0  0 
  9 10  1  0  0  0  0 
 10 11  1  0  0  0  0 
 11 12  1  0  0  0  0 
 12 13  1  0  0  0  0 
M  END
> <Name>
N-TRIDECANE

> <Source>
DSSTox2DMolFile

> <Tox>
-1.253

> <CAS>
629-50-5

$$$$

  CDK

 19 18  0  0  0  0  0  0  0  0999 V2000
    0.0000    0.0000    0.0000 I   0  0  0  0  0  0  0  0  0  0  0  0
    0.9003    0.5001    0.0000 C   0  0  0  0  0  0  0  0  0  0  0  0
    1.7505    0.0000    0.0000 C   0  0  0  0  0  0  0  0  0  0  0  0
    2.5507    0.5001    0.0000 C   0  0  0  0  0  0  0  0  0  0  0  0
    3.4510    0.0000    0.0000 C   0  0  0  0  0  0  0  0  0  0  0  0
    4.3013    0.5001    0.0000 C   0  0  0  0  0  0  0  0  0  0  0  0
    5.1515    0.0000    0.0000 C   0  0  0  0  0  0  0  0  0  0  0  0
    6.0518    0.5001    0.0000 C   0  0  0  0  0  0  0  0  0  0  0  0
    6.9020    0.0000    0.0000 C   0  0  0  0  0  0  0  0  0  0  0  0
    7.7523    0.5001    0.0000 C   0  0  0  0  0  0  0  0  0  0  0  0
    8.6525    0.0000    0.0000 C   0  0  0  0  0  0  0  0  0  0  0  0
    9.5028    0.5001    0.0000 C   0  0  0  0  0  0  0  0  0  0  0  0
   10.3530    0.0000    0.0000 C   0  0  0  0  0  0  0  0  0  0  0  0
   11.2533    0.5001    0.0000 C   0  0  0  0  0  0  0  0  0  0  0  0
   12.1035    0.0000    0.0000 C   0  0  0  0  0  0  0  0  0  0  0  0
   12.9538    0.5502    0.0000 C   0  0  0  0  0  0  0  0  0  0  0  0
   13.8540    0.0500    0.0000 C   0  0  0  0  0  0  0  0  0  0  0  0
   14.7043    0.5502    0.0000 C   0  0  0  0  0  0  0  0  0  0  0  0
   15.5545    0.0500    0.0000 C   0  0  0  0  0  0  0  0  0  0  0  0
  1  2  1  0  0  0  0 
  2  3  1  0  0  0  0 
  3  4  1  0  0  0  0 
  4  5  1  0  0  0  0 
  5  6  1  0  0  0  0 
  6  7  1  0  0  0  0 
  7  8  1  0  0  0  0 
  8  9  1  0  0  0  0 
  9 10  1  0  0  0  0 
 10 11  1  0  0  0  0 
 11 12  1  0  0  0  0 
 12 13  1  0  0  0  0 
 13 14  1  0  0  0  0 
 14 15  1  0  0  0  0 
 15 16  1  0  0  0  0 
 16 17  1  0  0  0  0 
 17 18  1  0  0  0  0 
 18 19  1  0  0  0  0 
M  END
> <Name>
1-IODOOCTADECANE

> <Source>
NIST2DMolFile

> <Tox>
-5.717

> <CAS>
629-93-6

$$$$

  CDK

 22 21  0  0  0  0  0  0  0  0999 V2000
   12.2306    3.0328    7.1563 C   0  0  0  0  0  0  0  0  0  0  0  0
   11.3000    2.7927    8.3340 C   0  0  0  0  0  0  0  0  0  0  0  0
   13.4709    3.8027    7.5802 C   0  0  0  0  0  0  0  0  0  0  0  0
   10.0600    2.0247    7.9105 C   0  0  0  0  0  0  0  0  0  0  0  0
   14.3976    4.0486    6.4024 C   0  0  0  0  0  0  0  0  0  0  0  0
    9.1372    1.7550    9.0892 C   0  0  0  0  0  0  0  0  0  0  0  0
   15.6373    4.8265    6.8168 C   0  0  0  0  0  0  0  0  0  0  0  0
    7.8116    1.1626    8.6344 C   0  0  0  0  0  0  0  0  0  0  0  0
   16.6434    4.9184    5.6792 C   0  0  0  0  0  0  0  0  0  0  0  0
    7.0154    2.1555    7.8012 C   0  0  0  0  0  0  0  0  0  0  0  0
   17.2029    3.5506    5.3181 C   0  0  0  0  0  0  0  0  0  0  0  0
    5.7768    1.5160    7.1985 C   0  0  0  0  0  0  0  0  0  0  0  0
   18.0622    3.6094    4.0674 C   0  0  0  0  0  0  0  0  0  0  0  0
    4.9787    2.5203    6.3828 C   0  0  0  0  0  0  0  0  0  0  0  0
   18.6264    2.2413    3.7195 C   0  0  0  0  0  0  0  0  0  0  0  0
    3.7379    1.8821    5.7798 C   0  0  0  0  0  0  0  0  0  0  0  0
   19.4837    2.2997    2.4657 C   0  0  0  0  0  0  0  0  0  0  0  0
    2.9384    2.8879    4.9677 C   0  0  0  0  0  0  0  0  0  0  0  0
   20.0477    0.9324    2.1145 C   0  0  0  0  0  0  0  0  0  0  0  0
    1.6950    2.2526    4.3660 C   0  0  0  0  0  0  0  0  0  0  0  0
   20.9011    0.9889    0.8677 C   0  0  0  0  0  0  0  0  0  0  0  0
    0.8979    3.2519    3.5588 C   0  0  0  0  0  0  0  0  0  0  0  0
  1  2  1  0  0  0  0 
  1  3  1  0  0  0  0 
  2  4  1  0  0  0  0 
  3  5  1  0  0  0  0 
  4  6  1  0  0  0  0 
  5  7  1  0  0  0  0 
  6  8  1  0  0  0  0 
  7  9  1  0  0  0  0 
  8 10  1  0  0  0  0 
  9 11  1  0  0  0  0 
 10 12  1  0  0  0  0 
 11 13  1  0  0  0  0 
 12 14  1  0  0  0  0 
 13 15  1  0  0  0  0 
 14 16  1  0  0  0  0 
 15 17  1  0  0  0  0 
 16 18  1  0  0  0  0 
 17 19  1  0  0  0  0 
 18 20  1  0  0  0  0 
 19 21  1  0  0  0  0 
 20 22  1  0  0  0  0 
M  END
> <Name>
DOCOSANE

> <Source>
NIST3DMolFile

> <Tox>
-5.893

> <CAS>
629-97-0

$$$$

  CDK

 15 14  0  0  0  0  0  0  0  0999 V2000
   11.5167   -0.0000    0.0000 O   0  0  0  0  0  0  0  0  0  0  0  0
   12.6781   -0.6636    0.0000 C   0  0  0  0  0  0  0  0  0  0  0  0
   13.8256   -0.0000    0.0000 O   0  0  0  0  0  0  0  0  0  0  0  0
   12.6781   -1.9909    0.0000 C   0  0  0  0  0  0  0  0  0  0  0  0
   11.5167   -2.6545    0.0000 C   0  0  0  0  0  0  0  0  0  0  0  0
   10.3692   -1.9909    0.0000 C   0  0  0  0  0  0  0  0  0  0  0  0
    9.2217   -2.6545    0.0000 C   0  0  0  0  0  0  0  0  0  0  0  0
    8.0603   -1.9909    0.0000 C   0  0  0  0  0  0  0  0  0  0  0  0
    6.9128   -2.6545    0.0000 C   0  0  0  0  0  0  0  0  0  0  0  0
    5.7653   -1.9909    0.0000 C   0  0  0  0  0  0  0  0  0  0  0  0
    4.6039   -2.6545    0.0000 C   0  0  0  0  0  0  0  0  0  0  0  0
    3.4564   -1.9909    0.0000 C   0  0  0  0  0  0  0  0  0  0  0  0
    2.3089   -2.6545    0.0000 C   0  0  0  0  0  0  0  0  0  0  0  0
    1.1475   -1.9909    0.0000 C   0  0  0  0  0  0  0  0  0  0  0  0
    0.0000   -2.6545    0.0000 C   0  0  0  0  0  0  0  0  0  0  0  0
  1  2  2  0  0  0  0 
  2  3  1  0  0  0  0 
  2  4  1  0  0  0  0 
  4  5  1  0  0  0  0 
  5  6  1  0  0  0  0 
  6  7  1  0  0  0  0 
  7  8  1  0  0  0  0 
  8  9  1  0  0  0  0 
  9 10  1  0  0  0  0 
 10 11  1  0  0  0  0 
 11 12  1  0  0  0  0 
 12 13  1  0  0  0  0 
 13 14  1  0  0  0  0 
 14 15  1  0  0  0  0 
M  END
> <Name>
TRIDECANOIC ACID

> <Source>
DSSTox2DMolFile

> <Tox>
-4.900

> <CAS>
638-53-9

$$$$

  CDK

 30 29  0  0  0  0  0  0  0  0999 V2000
   14.2980    1.4696    7.2700 C   0  0  0  0  0  0  0  0  0  0  0  0
   12.9574    1.3267    6.5678 C   0  0  0  0  0  0  0  0  0  0  0  0
   15.4429    1.5125    6.2710 C   0  0  0  0  0  0  0  0  0  0  0  0
   11.8118    1.2838    7.5661 C   0  0  0  0  0  0  0  0  0  0  0  0
   16.7840    1.6538    6.9728 C   0  0  0  0  0  0  0  0  0  0  0  0
   10.4725    1.1302    6.8636 C   0  0  0  0  0  0  0  0  0  0  0  0
   17.9287    1.6962    5.9733 C   0  0  0  0  0  0  0  0  0  0  0  0
    9.3252    1.0992    7.8601 C   0  0  0  0  0  0  0  0  0  0  0  0
   19.2700    1.8357    6.6746 C   0  0  0  0  0  0  0  0  0  0  0  0
    7.9882    0.9404    7.1573 C   0  0  0  0  0  0  0  0  0  0  0  0
   20.4144    1.8779    5.6748 C   0  0  0  0  0  0  0  0  0  0  0  0
    6.8338    0.9043    8.1475 C   0  0  0  0  0  0  0  0  0  0  0  0
   21.7561    2.0161    6.3757 C   0  0  0  0  0  0  0  0  0  0  0  0
    5.4893    0.9237    7.4359 C   0  0  0  0  0  0  0  0  0  0  0  0
   22.9001    2.0584    5.3756 C   0  0  0  0  0  0  0  0  0  0  0  0
    5.2678    2.2359    6.6988 C   0  0  0  0  0  0  0  0  0  0  0  0
   24.2422    2.1953    6.0761 C   0  0  0  0  0  0  0  0  0  0  0  0
    4.0186    2.1902    5.8360 C   0  0  0  0  0  0  0  0  0  0  0  0
   25.3858    2.2386    5.0756 C   0  0  0  0  0  0  0  0  0  0  0  0
    3.7990    3.5083    5.1116 C   0  0  0  0  0  0  0  0  0  0  0  0
   26.7282    2.3743    5.7759 C   0  0  0  0  0  0  0  0  0  0  0  0
    2.5519    3.4612    4.2438 C   0  0  0  0  0  0  0  0  0  0  0  0
   27.8716    2.4187    4.7751 C   0  0  0  0  0  0  0  0  0  0  0  0
    2.3379    4.7751    3.5129 C   0  0  0  0  0  0  0  0  0  0  0  0
   29.2141    2.5532    5.4752 C   0  0  0  0  0  0  0  0  0  0  0  0
    1.0843    4.7413    2.6521 C   0  0  0  0  0  0  0  0  0  0  0  0
   30.3588    2.6000    4.4757 C   0  0  0  0  0  0  0  0  0  0  0  0
    0.9801    5.9808    1.7751 C   0  0  0  0  0  0  0  0  0  0  0  0
   31.6953    2.7322    5.1702 C   0  0  0  0  0  0  0  0  0  0  0  0
    2.1004    6.0403    0.7595 C   0  0  0  0  0  0  0  0  0  0  0  0
  1  2  1  0  0  0  0 
  1  3  1  0  0  0  0 
  2  4  1  0  0  0  0 
  3  5  1  0  0  0  0 
  4  6  1  0  0  0  0 
  5  7  1  0  0  0  0 
  6  8  1  0  0  0  0 
  7  9  1  0  0  0  0 
  8 10  1  0  0  0  0 
  9 11  1  0  0  0  0 
 10 12  1  0  0  0  0 
 11 13  1  0  0  0  0 
 12 14  1  0  0  0  0 
 13 15  1  0  0  0  0 
 14 16  1  0  0  0  0 
 15 17  1  0  0  0  0 
 16 18  1  0  0  0  0 
 17 19  1  0  0  0  0 
 18 20  1  0  0  0  0 
 19 21  1  0  0  0  0 
 20 22  1  0  0  0  0 
 21 23  1  0  0  0  0 
 22 24  1  0  0  0  0 
 23 25  1  0  0  0  0 
 24 26  1  0  0  0  0 
 25 27  1  0  0  0  0 
 26 28  1  0  0  0  0 
 27 29  1  0  0  0  0 
 28 30  1  0  0  0  0 
M  END
> <Name>
TRIACONTANE

> <Source>
NIST3DMolFile

> <Tox>
-10.564

> <CAS>
638-68-6

$$$$

  CDK

  9  8  0  0  0  0  0  0  0  0999 V2000
    4.3480    1.4993    0.0000 C   0  0  0  0  0  0  0  0  0  0  0  0
    3.4484    0.9995    0.0000 C   0  0  0  0  0  0  0  0  0  0  0  0
    4.3480    2.4988    0.0000 C   0  0  0  0  0  0  0  0  0  0  0  0
    5.1976    0.9995    0.0000 C   0  0  0  0  0  0  0  0  0  0  0  0
    2.5988    1.4993    0.0000 O   0  0  0  0  0  0  0  0  0  0  0  0
    3.4484    0.0000    0.0000 O   0  0  0  0  0  0  0  0  0  0  0  0
    1.7492    0.9995    0.0000 C   0  0  0  0  0  0  0  0  0  0  0  0
    0.8496    1.4993    0.0000 C   0  0  0  0  0  0  0  0  0  0  0  0
    0.0000    0.9995    0.0000 C   0  0  0  0  0  0  0  0  0  0  0  0
  1  2  1  0  0  0  0 
  1  3  1  0  0  0  0 
  1  4  1  0  0  0  0 
  2  5  1  0  0  0  0 
  2  6  2  0  0  0  0 
  5  7  1  0  0  0  0 
  7  8  1  0  0  0  0 
  8  9  1  0  0  0  0 
M  END
> <Name>
PROPYL ISOBUTYRATE

> <Source>
NIST2DMolFile

> <Tox>
0.924

> <CAS>
644-49-5

$$$$

  CDK

 10 10  0  0  0  0  0  0  0  0999 V2000
    7.3120   -1.1553    0.0000 O   0  0  0  0  0  0  0  0  0  0  0  0
    5.9812   -1.1553    0.0000 C   0  0  0  0  0  0  0  0  0  0  0  0
    5.3158   -2.3033    0.0000 C   0  0  0  0  0  0  0  0  0  0  0  0
    5.3158   -0.0000    0.0000 C   0  0  0  0  0  0  0  0  0  0  0  0
    3.9850   -2.3033    0.0000 C   0  0  0  0  0  0  0  0  0  0  0  0
    3.9850   -0.0000    0.0000 C   0  0  0  0  0  0  0  0  0  0  0  0
    3.3270   -1.1553    0.0000 C   0  0  0  0  0  0  0  0  0  0  0  0
    1.9962   -1.1553    0.0000 C   0  0  0  0  0  0  0  0  0  0  0  0
    1.3308   -0.0000    0.0000 C   0  0  0  0  0  0  0  0  0  0  0  0
    0.0000   -0.0000    0.0000 C   0  0  0  0  0  0  0  0  0  0  0  0
  1  2  1  0  0  0  0 
  2  3  2  0  0  0  0 
  2  4  1  0  0  0  0 
  3  5  1  0  0  0  0 
  6  4  2  0  0  0  0 
  5  7  2  0  0  0  0 
  7  6  1  0  0  0  0 
  7  8  1  0  0  0  0 
  8  9  1  0  0  0  0 
  9 10  1  0  0  0  0 
M  END
> <Name>
4-PROPYLPHENOL

> <Source>
DSSTox2DMolFile

> <Tox>
-1.426

> <CAS>
645-56-7

$$$$

  CDK

  5  4  0  0  0  0  0  0  0  0999 V2000
    1.7751    2.0784    1.0519 C   0  0  0  0  0  0  0  0  0  0  0  0
    1.0912    1.0077    1.8746 C   0  0  0  0  0  0  0  0  0  0  0  0
    3.2531    1.9084    1.0638 C   0  0  0  0  0  0  0  0  0  0  0  0
    4.0965    2.9090    1.3214 C   0  0  0  0  0  0  0  0  0  0  0  0
    5.5670    2.7467    1.3187 C   0  0  0  0  0  0  0  0  0  0  0  0
  1  2  1  0  0  0  0 
  1  3  1  0  0  0  0 
  3  4  2  0  0  0  0 
  4  5  1  0  0  0  0 
M  END
> <Name>
TRANS-2-PENTENE

> <Source>
NIST3DMolFile

> <Tox>
2.704

> <CAS>
646-04-8

$$$$

  CDK

  8  7  0  0  0  0  0  0  0  0999 V2000
    3.4834    0.4976    0.0000 C   0  0  0  0  0  0  0  0  0  0  0  0
    2.5877    0.0000    0.0000 C   0  0  0  0  0  0  0  0  0  0  0  0
    4.3294    0.0000    0.0000 C   0  0  0  0  0  0  0  0  0  0  0  0
    1.7417    0.4976    0.0000 C   0  0  0  0  0  0  0  0  0  0  0  0
    5.1754    0.4976    0.0000 C   0  0  0  0  0  0  0  0  0  0  0  0
    0.8957    0.0000    0.0000 C   0  0  0  0  0  0  0  0  0  0  0  0
    6.0711    0.0000    0.0000 F   0  0  0  0  0  0  0  0  0  0  0  0
    0.0000    0.4976    0.0000 C   0  0  0  0  0  0  0  0  0  0  0  0
  1  2  1  0  0  0  0 
  1  3  1  0  0  0  0 
  2  4  1  0  0  0  0 
  3  5  1  0  0  0  0 
  4  6  1  0  0  0  0 
  5  7  1  0  0  0  0 
  6  8  1  0  0  0  0 
M  END
> <Name>
1-FLUOROHEPTANE

> <Source>
NIST2DMolFile

> <Tox>
1.265

> <CAS>
661-11-0

$$$$

  CDK

  5  4  0  0  0  0  0  0  0  0999 V2000
   -1.2826    0.4713    0.0000 C   0  0  0  0  0  0  0  0  0  0  0  0
   -1.7624   -0.6358    0.0000 O   0  0  0  0  0  0  0  0  0  0  0  0
    0.0630    0.6713    0.0000 O   0  0  0  0  0  0  0  0  0  0  0  0
    0.9395   -0.4061    0.0000 C   0  0  0  0  0  0  0  0  0  0  0  0
    2.2399   -0.1148    0.0000 C   0  0  0  0  0  0  0  0  0  0  0  0
  1  2  2  0  0  0  0 
  1  3  1  0  0  0  0 
  3  4  1  0  0  0  0 
  4  5  2  0  0  0  0 
M  END
> <Name>
VINYL FORMATE

> <Source>
DougDB3DMolFile

> <Tox>
2.496

> <CAS>
692-45-5

$$$$

  CDK

 12 11  0  0  0  0  0  0  0  0999 V2000
    7.3274   -0.5539    0.1011 Br  0  0  0  0  0  0  0  0  0  0  0  0
    5.7308    0.5555    0.0044 C   0  0  0  0  0  0  0  0  0  0  0  0
    4.4671   -0.2918    0.0141 C   0  0  0  0  0  0  0  0  0  0  0  0
    3.1850    0.5462   -0.0478 C   0  0  0  0  0  0  0  0  0  0  0  0
    1.9052   -0.2972   -0.0192 C   0  0  0  0  0  0  0  0  0  0  0  0
    0.5879    0.4857   -0.0421 C   0  0  0  0  0  0  0  0  0  0  0  0
   -0.6502   -0.4131   -0.0752 C   0  0  0  0  0  0  0  0  0  0  0  0
   -1.9679    0.3674   -0.0179 C   0  0  0  0  0  0  0  0  0  0  0  0
   -3.2448   -0.4774   -0.0692 C   0  0  0  0  0  0  0  0  0  0  0  0
   -4.5270    0.3480    0.0547 C   0  0  0  0  0  0  0  0  0  0  0  0
   -5.7678   -0.5443    0.0058 C   0  0  0  0  0  0  0  0  0  0  0  0
   -7.0457    0.2752    0.0912 C   0  0  0  0  0  0  0  0  0  0  0  0
  1  2  1  0  0  0  0 
  3  2  1  0  0  0  0 
  4  3  1  0  0  0  0 
  5  4  1  0  0  0  0 
  6  5  1  0  0  0  0 
  7  6  1  0  0  0  0 
  7  8  1  0  0  0  0 
  8  9  1  0  0  0  0 
  9 10  1  0  0  0  0 
 10 11  1  0  0  0  0 
 11 12  1  0  0  0  0 
M  END
> <Name>
1-BROMOUNDECANE

> <Source>
Chemidplus3DMolFile

> <Tox>
-1.917

> <CAS>
693-67-4

$$$$

  CDK

  9  9  0  0  0  0  0  0  0  0999 V2000
    0.0000    0.0000    0.0000 Cl  0  0  0  0  0  0  0  0  0  0  0  0
    0.5502    0.9002    0.0000 As  0  0  0  0  0  0  0  0  0  0  0  0
    0.0500    1.7505    0.0000 Cl  0  0  0  0  0  0  0  0  0  0  0  0
    1.5004    0.9002    0.0000 C   0  0  0  0  0  0  0  0  0  0  0  0
    2.0005    0.0000    0.0000 C   0  0  0  0  0  0  0  0  0  0  0  0
    2.0005    1.7505    0.0000 C   0  0  0  0  0  0  0  0  0  0  0  0
    2.9508    0.0000    0.0000 C   0  0  0  0  0  0  0  0  0  0  0  0
    3.0008    1.7505    0.0000 C   0  0  0  0  0  0  0  0  0  0  0  0
    3.5010    0.9002    0.0000 C   0  0  0  0  0  0  0  0  0  0  0  0
  1  2  1  0  0  0  0 
  2  3  1  0  0  0  0 
  2  4  1  0  0  0  0 
  4  5  2  0  0  0  0 
  6  4  1  0  0  0  0 
  5  7  1  0  0  0  0 
  8  6  2  0  0  0  0 
  7  9  2  0  0  0  0 
  9  8  1  0  0  0  0 
M  END
> <Name>
DICHLOROPHENYLARSINE

> <Source>
NIST2DMolFile

> <Tox>
-0.947

> <CAS>
696-28-6

$$$$

  CDK

 10 10  0  0  0  0  0  0  0  0999 V2000
    2.6026    3.5035    0.0000 C   0  0  0  0  0  0  0  0  0  0  0  0
    1.7518    3.0030    0.0000 C   0  0  0  0  0  0  0  0  0  0  0  0
    1.7518    2.0020    0.0000 C   0  0  0  0  0  0  0  0  0  0  0  0
    0.9009    1.5015    0.0000 C   0  0  0  0  0  0  0  0  0  0  0  0
    2.6026    1.5015    0.0000 C   0  0  0  0  0  0  0  0  0  0  0  0
    0.9009    0.5005    0.0000 C   0  0  0  0  0  0  0  0  0  0  0  0
    2.6026    0.5005    0.0000 C   0  0  0  0  0  0  0  0  0  0  0  0
    0.0000    0.0000    0.0000 C   0  0  0  0  0  0  0  0  0  0  0  0
    1.7518    0.0000    0.0000 C   0  0  0  0  0  0  0  0  0  0  0  0
    3.5035    0.0000    0.0000 O   0  0  0  0  0  0  0  0  0  0  0  0
  1  2  1  0  0  0  0 
  2  3  1  0  0  0  0 
  4  3  2  0  0  0  0 
  3  5  1  0  0  0  0 
  6  4  1  0  0  0  0 
  5  7  2  0  0  0  0 
  6  8  1  0  0  0  0 
  9  6  2  0  0  0  0 
  7  9  1  0  0  0  0 
  7 10  1  0  0  0  0 
M  END
> <Name>
3-ETHYL-5-METHYLPHENOL

> <Source>
NIST2DMolFile

> <Tox>
-2.057

> <CAS>
698-71-5

$$$$

  CDK

  6  5  0  0  0  0  0  0  0  0999 V2000
    3.5715    1.5797    2.7429 C   0  0  0  0  0  0  0  0  0  0  0  0
    2.9417    2.9453    2.4394 C   0  0  0  0  0  0  0  0  0  0  0  0
    3.0493    0.9675    4.0234 C   0  0  0  0  0  0  0  0  0  0  0  0
    1.5286    2.7603    1.9828 C   0  0  0  0  0  0  0  0  0  0  0  0
    3.8122    3.7088    1.4547 C   0  0  0  0  0  0  0  0  0  0  0  0
    1.0413    3.0918    0.7938 C   0  0  0  0  0  0  0  0  0  0  0  0
  1  2  1  0  0  0  0 
  1  3  1  0  0  0  0 
  2  4  1  0  0  0  0 
  2  5  1  0  0  0  0 
  4  6  2  0  0  0  0 
M  END
> <Name>
3-METHYL-1-PENTENE

> <Source>
NIST3DMolFile

> <Tox>
2.430

> <CAS>
760-20-3

$$$$

  CDK

 16 15  0  0  0  0  0  0  0  0999 V2000
    0.0000    0.0000    0.0000 C   0  0  0  0  0  0  0  0  0  0  0  0
   -0.3800   -1.4800   -0.2400 C   0  0  0  0  0  0  0  0  0  0  0  0
    0.7800   -2.3000   -0.7800 C   0  0  0  0  0  0  0  0  0  0  0  0
    0.3600   -3.7400   -1.1400 C   0  0  0  0  0  0  0  0  0  0  0  0
    1.5000   -4.5400   -1.7800 C   0  0  0  0  0  0  0  0  0  0  0  0
    1.0400   -5.8800   -2.3200 C   0  0  0  0  0  0  0  0  0  0  0  0
    2.1400   -6.6400   -3.0600 C   0  0  0  0  0  0  0  0  0  0  0  0
    1.6000   -7.6800   -4.0000 C   0  0  0  0  0  0  0  0  0  0  0  0
    0.9200   -8.6000   -3.5800 O   0  0  0  0  0  0  0  0  0  0  0  0
    1.9200   -7.5600   -5.4600 C   0  0  0  0  0  0  0  0  0  0  0  0
    0.9400   -6.6200   -6.2000 C   0  0  0  0  0  0  0  0  0  0  0  0
    1.1600   -5.1600   -5.8400 C   0  0  0  0  0  0  0  0  0  0  0  0
    0.1800   -4.2200   -6.5800 C   0  0  0  0  0  0  0  0  0  0  0  0
    0.3400   -2.7600   -6.1400 C   0  0  0  0  0  0  0  0  0  0  0  0
   -0.6800   -1.8400   -6.8400 C   0  0  0  0  0  0  0  0  0  0  0  0
   -0.5600   -0.4000   -6.3600 C   0  0  0  0  0  0  0  0  0  0  0  0
  1  2  1  0  0  0  0 
  2  3  1  0  0  0  0 
  3  4  1  0  0  0  0 
  4  5  1  0  0  0  0 
  5  6  1  0  0  0  0 
  6  7  1  0  0  0  0 
  7  8  1  0  0  0  0 
  8  9  2  0  0  0  0 
  8 10  1  0  0  0  0 
 10 11  1  0  0  0  0 
 11 12  1  0  0  0  0 
 12 13  1  0  0  0  0 
 13 14  1  0  0  0  0 
 14 15  1  0  0  0  0 
 15 16  1  0  0  0  0 
M  END
> <Name>
8-PENTADECANONE

> <Source>
NIH3DMolFile

> <Tox>
-3.394

> <CAS>
818-23-5

$$$$

  CDK

  8  7  0  0  0  0  0  0  0  0999 V2000
    0.0000   -0.0000    0.0000 C   0  0  0  0  0  0  0  0  0  0  0  0
    0.6642   -1.1549    0.0000 C   0  0  0  0  0  0  0  0  0  0  0  0
    1.9926   -1.1549    0.0000 C   0  0  0  0  0  0  0  0  0  0  0  0
    2.6569   -0.0000    0.0000 O   0  0  0  0  0  0  0  0  0  0  0  0
    2.6569   -2.3038    0.0000 O   0  0  0  0  0  0  0  0  0  0  0  0
    3.9913   -2.3038    0.0000 C   0  0  0  0  0  0  0  0  0  0  0  0
    4.6555   -1.1549    0.0000 C   0  0  0  0  0  0  0  0  0  0  0  0
    5.9839   -1.1549    0.0000 O   0  0  0  0  0  0  0  0  0  0  0  0
  1  2  2  0  0  0  0 
  2  3  1  0  0  0  0 
  3  4  2  0  0  0  0 
  3  5  1  0  0  0  0 
  5  6  1  0  0  0  0 
  6  7  1  0  0  0  0 
  7  8  1  0  0  0  0 
M  END
> <Name>
2-HYDROXYETHYL ACRYLATE

> <Source>
DSSTox2DMolFile

> <Tox>
-1.281

> <CAS>
818-61-1

$$$$

  CDK

 10  9  0  0  0  0  0  0  0  0999 V2000
    0.0000   -1.9996    0.0000 C   0  0  0  0  0  0  0  0  0  0  0  0
    1.1518   -1.3361    0.0000 C   0  0  0  0  0  0  0  0  0  0  0  0
    2.3036   -1.9996    0.0000 C   0  0  0  0  0  0  0  0  0  0  0  0
    3.4555   -1.3361    0.0000 C   0  0  0  0  0  0  0  0  0  0  0  0
    4.6073   -1.9996    0.0000 C   0  0  0  0  0  0  0  0  0  0  0  0
    5.7591   -1.3361    0.0000 C   0  0  0  0  0  0  0  0  0  0  0  0
    6.9109   -1.9996    0.0000 C   0  0  0  0  0  0  0  0  0  0  0  0
    8.0628   -1.3361    0.0000 C   0  0  0  0  0  0  0  0  0  0  0  0
    8.0628   -0.0000    0.0000 O   0  0  0  0  0  0  0  0  0  0  0  0
    9.2146   -1.9996    0.0000 C   0  0  0  0  0  0  0  0  0  0  0  0
  1  2  1  0  0  0  0 
  2  3  1  0  0  0  0 
  3  4  1  0  0  0  0 
  4  5  1  0  0  0  0 
  5  6  1  0  0  0  0 
  6  7  1  0  0  0  0 
  7  8  1  0  0  0  0 
  8  9  2  0  0  0  0 
  8 10  1  0  0  0  0 
M  END
> <Name>
2-NONANONE

> <Source>
DSSTox2DMolFile

> <Tox>
-0.205

> <CAS>
821-55-6

$$$$

  CDK

 14 15  0  0  0  0  0  0  0  0999 V2000
    1.9964   -3.4570    0.0000 C   0  0  0  0  0  0  0  0  0  0  0  0
    0.6655   -3.4570    0.0000 C   0  0  0  0  0  0  0  0  0  0  0  0
    2.6619   -2.3075    0.0000 C   0  0  0  0  0  0  0  0  0  0  0  0
    0.0000   -2.3075    0.0000 C   0  0  0  0  0  0  0  0  0  0  0  0
    1.9964   -1.1581    0.0000 C   0  0  0  0  0  0  0  0  0  0  0  0
    3.9928   -2.3075    0.0000 S   0  0  0  0  0  0  0  0  0  0  0  0
    0.6655   -1.1581    0.0000 C   0  0  0  0  0  0  0  0  0  0  0  0
    4.6497   -1.1581    0.0000 S   0  0  0  0  0  0  0  0  0  0  0  0
    5.9806   -1.1581    0.0000 C   0  0  0  0  0  0  0  0  0  0  0  0
    6.6461   -0.0000    0.0000 C   0  0  0  0  0  0  0  0  0  0  0  0
    6.6461   -2.3075    0.0000 C   0  0  0  0  0  0  0  0  0  0  0  0
    7.9770   -0.0000    0.0000 C   0  0  0  0  0  0  0  0  0  0  0  0
    7.9770   -2.3075    0.0000 C   0  0  0  0  0  0  0  0  0  0  0  0
    8.6425   -1.1581    0.0000 C   0  0  0  0  0  0  0  0  0  0  0  0
  1  2  2  0  0  0  0 
  1  3  1  0  0  0  0 
  2  4  1  0  0  0  0 
  5  3  2  0  0  0  0 
  3  6  1  0  0  0  0 
  4  7  2  0  0  0  0 
  7  5  1  0  0  0  0 
  6  8  1  0  0  0  0 
  8  9  1  0  0  0  0 
  9 10  2  0  0  0  0 
  9 11  1  0  0  0  0 
 10 12  1  0  0  0  0 
 13 11  2  0  0  0  0 
 12 14  2  0  0  0  0 
 14 13  1  0  0  0  0 
M  END
> <Name>
DIPHENYL DISULFIDE

> <Source>
DSSTox2DMolFile

> <Tox>
-3.658

> <CAS>
882-33-7

$$$$

  CDK

  6  5  0  0  0  0  0  0  0  0999 V2000
    4.5019    1.0858    3.9064 C   0  0  0  0  0  0  0  0  0  0  0  0
    3.1964    1.5648    3.4039 C   0  0  0  0  0  0  0  0  0  0  0  0
    3.0124    2.1952    2.2359 C   0  0  0  0  0  0  0  0  0  0  0  0
    1.6449    2.6355    1.8117 C   0  0  0  0  0  0  0  0  0  0  0  0
    4.1144    2.5030    1.2884 C   0  0  0  0  0  0  0  0  0  0  0  0
    0.9936    1.6133    0.9034 C   0  0  0  0  0  0  0  0  0  0  0  0
  1  2  1  0  0  0  0 
  2  3  2  0  0  0  0 
  3  4  1  0  0  0  0 
  3  5  1  0  0  0  0 
  4  6  1  0  0  0  0 
M  END
> <Name>
3-METHYL-2-PENTENE

> <Source>
NIST3DMolFile

> <Tox>
2.196

> <CAS>
922-61-2

$$$$

  CDK

  8  8  0  0  0  0  0  0  0  0999 V2000
    3.6709    4.5635    2.2071 C   0  0  0  0  0  0  0  0  0  0  0  0
    2.4479    4.3704    1.3139 C   0  0  0  0  0  0  0  0  0  0  0  0
    4.1116    3.1811    2.6767 C   0  0  0  0  0  0  0  0  0  0  0  0
    2.0451    2.8939    1.4021 C   0  0  0  0  0  0  0  0  0  0  0  0
    3.3067    2.1495    1.8784 C   0  0  0  0  0  0  0  0  0  0  0  0
    0.8881    2.6860    2.3630 C   0  0  0  0  0  0  0  0  0  0  0  0
    4.1008    1.6022    0.6919 C   0  0  0  0  0  0  0  0  0  0  0  0
    5.3626    0.8967    1.1358 C   0  0  0  0  0  0  0  0  0  0  0  0
  2  1  1  0  0  0  0 
  1  3  1  0  0  0  0 
  4  2  1  0  0  0  0 
  3  5  1  0  0  0  0 
  5  4  1  0  0  0  0 
  4  6  1  0  0  0  0 
  5  7  1  0  0  0  0 
  7  8  1  0  0  0  0 
M  END
> <Name>
1-METHYL-2-ETHYLCYCLOPENTANE (TRANS)

> <Source>
NIST3DMolFile

> <Tox>
1.301

> <CAS>
930-90-5

$$$$

  CDK

 10 10  0  0  0  0  0  0  0  0999 V2000
    3.9887   -4.6056    0.0000 O   0  0  0  0  0  0  0  0  0  0  0  0
    3.3239   -3.4568    0.0000 C   0  0  0  0  0  0  0  0  0  0  0  0
    1.9943   -3.4568    0.0000 C   0  0  0  0  0  0  0  0  0  0  0  0
    3.9887   -2.3028    0.0000 C   0  0  0  0  0  0  0  0  0  0  0  0
    1.3296   -2.3028    0.0000 C   0  0  0  0  0  0  0  0  0  0  0  0
    3.3239   -1.1487    0.0000 C   0  0  0  0  0  0  0  0  0  0  0  0
    5.3182   -2.3028    0.0000 Cl  0  0  0  0  0  0  0  0  0  0  0  0
    0.0000   -2.3028    0.0000 Cl  0  0  0  0  0  0  0  0  0  0  0  0
    1.9943   -1.1487    0.0000 C   0  0  0  0  0  0  0  0  0  0  0  0
    3.9887   -0.0000    0.0000 Cl  0  0  0  0  0  0  0  0  0  0  0  0
  1  2  1  0  0  0  0 
  2  3  2  0  0  0  0 
  2  4  1  0  0  0  0 
  3  5  1  0  0  0  0 
  6  4  2  0  0  0  0 
  4  7  1  0  0  0  0 
  5  8  1  0  0  0  0 
  5  9  2  0  0  0  0 
  9  6  1  0  0  0  0 
  6 10  1  0  0  0  0 
M  END
> <Name>
2,3,5-TRICHLOROPHENOL

> <Source>
DSSTox2DMolFile

> <Tox>
-1.658

> <CAS>
933-78-8

$$$$

  CDK

 12 13  0  0  0  0  0  0  0  0999 V2000
    7.5959    3.6260    1.7177 C   0  0  0  0  0  0  0  0  0  0  0  0
    6.5947    2.8560    0.8818 C   0  0  0  0  0  0  0  0  0  0  0  0
    5.3879    2.4905    1.6851 C   0  0  0  0  0  0  0  0  0  0  0  0
    4.2788    3.2994    1.7004 C   0  0  0  0  0  0  0  0  0  0  0  0
    5.3992    1.2899    2.4428 C   0  0  0  0  0  0  0  0  0  0  0  0
    3.1388    2.9429    2.4689 C   0  0  0  0  0  0  0  0  0  0  0  0
    4.3122    0.9268    3.1888 C   0  0  0  0  0  0  0  0  0  0  0  0
    3.1532    1.7488    3.2176 C   0  0  0  0  0  0  0  0  0  0  0  0
    1.9812    3.7673    2.4979 C   0  0  0  0  0  0  0  0  0  0  0  0
    2.0115    1.3928    3.9846 C   0  0  0  0  0  0  0  0  0  0  0  0
    0.8940    3.4026    3.2449 C   0  0  0  0  0  0  0  0  0  0  0  0
    0.9090    2.2035    3.9949 C   0  0  0  0  0  0  0  0  0  0  0  0
  1  2  1  0  0  0  0 
  2  3  1  0  0  0  0 
  4  3  2  0  0  0  0 
  3  5  1  0  0  0  0 
  6  4  1  0  0  0  0 
  5  7  2  0  0  0  0 
  6  8  2  0  0  0  0 
  9  6  1  0  0  0  0 
  7  8  1  0  0  0  0 
  8 10  1  0  0  0  0 
 11  9  2  0  0  0  0 
 10 12  2  0  0  0  0 
 12 11  1  0  0  0  0 
M  END
> <Name>
2-ETHYLNAPHTHALENE

> <Source>
NIST3DMolFile

> <Tox>
-1.500

> <CAS>
939-27-5

$$$$

  CDK

 17 16  0  0  0  0  0  0  0  0999 V2000
   13.8275   -0.0000    0.0000 O   0  0  0  0  0  0  0  0  0  0  0  0
   14.9892   -0.6615    0.0000 C   0  0  0  0  0  0  0  0  0  0  0  0
   16.1348   -0.0000    0.0000 O   0  0  0  0  0  0  0  0  0  0  0  0
   14.9892   -2.0007    0.0000 C   0  0  0  0  0  0  0  0  0  0  0  0
   13.8275   -2.6622    0.0000 C   0  0  0  0  0  0  0  0  0  0  0  0
   12.6819   -2.0007    0.0000 C   0  0  0  0  0  0  0  0  0  0  0  0
   11.5202   -2.6622    0.0000 C   0  0  0  0  0  0  0  0  0  0  0  0
   10.3747   -2.0007    0.0000 C   0  0  0  0  0  0  0  0  0  0  0  0
    9.2130   -2.6622    0.0000 C   0  0  0  0  0  0  0  0  0  0  0  0
    8.0674   -2.0007    0.0000 C   0  0  0  0  0  0  0  0  0  0  0  0
    6.9218   -2.6622    0.0000 C   0  0  0  0  0  0  0  0  0  0  0  0
    5.7601   -2.0007    0.0000 C   0  0  0  0  0  0  0  0  0  0  0  0
    4.6145   -2.6622    0.0000 C   0  0  0  0  0  0  0  0  0  0  0  0
    3.4528   -2.0007    0.0000 C   0  0  0  0  0  0  0  0  0  0  0  0
    2.3073   -2.6622    0.0000 C   0  0  0  0  0  0  0  0  0  0  0  0
    1.1456   -2.0007    0.0000 C   0  0  0  0  0  0  0  0  0  0  0  0
    0.0000   -2.6622    0.0000 C   0  0  0  0  0  0  0  0  0  0  0  0
  1  2  2  0  0  0  0 
  2  3  1  0  0  0  0 
  2  4  1  0  0  0  0 
  4  5  1  0  0  0  0 
  5  6  1  0  0  0  0 
  6  7  1  0  0  0  0 
  7  8  1  0  0  0  0 
  8  9  1  0  0  0  0 
  9 10  1  0  0  0  0 
 10 11  1  0  0  0  0 
 11 12  1  0  0  0  0 
 12 13  1  0  0  0  0 
 13 14  1  0  0  0  0 
 14 15  1  0  0  0  0 
 15 16  1  0  0  0  0 
 16 17  1  0  0  0  0 
M  END
> <Name>
PENTADECANOIC ACID

> <Source>
DSSTox2DMolFile

> <Tox>
-6.362

> <CAS>
1002-84-2

$$$$

  CDK

  6  6  0  0  0  0  0  0  0  0999 V2000
    2.3322    0.0000    0.0000 Br  0  0  0  0  0  0  0  0  0  0  0  0
    1.5717    0.4563    0.0000 C   0  0  0  0  0  0  0  0  0  0  0  0
    0.7605    0.0000    0.0000 S   0  0  0  0  0  0  0  0  0  0  0  0
    1.5717    1.3182    0.0000 C   0  0  0  0  0  0  0  0  0  0  0  0
    0.0000    0.4563    0.0000 C   0  0  0  0  0  0  0  0  0  0  0  0
    0.0000    1.3182    0.0000 C   0  0  0  0  0  0  0  0  0  0  0  0
  1  2  1  0  0  0  0 
  2  3  1  0  0  0  0 
  4  2  2  0  0  0  0 
  3  5  1  0  0  0  0 
  6  4  1  0  0  0  0 
  5  6  2  0  0  0  0 
M  END
> <Name>
2-BROMOTHIOPHENE

> <Source>
NIST2DMolFile

> <Tox>
1.369

> <CAS>
1003-09-4

$$$$

  CDK

 13 13  0  0  0  0  0  0  0  0999 V2000
    6.3076    2.4319    3.4168 C   0  0  0  0  0  0  0  0  0  0  0  0
    4.9351    3.0504    3.6359 C   0  0  0  0  0  0  0  0  0  0  0  0
    7.1126    3.2181    2.3888 C   0  0  0  0  0  0  0  0  0  0  0  0
    4.0744    2.9544    2.3853 C   0  0  0  0  0  0  0  0  0  0  0  0
    8.3715    2.5028    2.0242 C   0  0  0  0  0  0  0  0  0  0  0  0
    2.7771    3.7292    2.5369 C   0  0  0  0  0  0  0  0  0  0  0  0
    8.3437    1.4743    1.0804 C   0  0  0  0  0  0  0  0  0  0  0  0
    9.5820    2.8534    2.6232 C   0  0  0  0  0  0  0  0  0  0  0  0
    1.9126    3.6124    1.2918 C   0  0  0  0  0  0  0  0  0  0  0  0
    9.5138    0.8054    0.7410 C   0  0  0  0  0  0  0  0  0  0  0  0
   10.7508    2.1821    2.2813 C   0  0  0  0  0  0  0  0  0  0  0  0
    0.6232    4.3884    1.4381 C   0  0  0  0  0  0  0  0  0  0  0  0
   10.7183    1.1581    1.3407 C   0  0  0  0  0  0  0  0  0  0  0  0
  1  2  1  0  0  0  0 
  1  3  1  0  0  0  0 
  2  4  1  0  0  0  0 
  3  5  1  0  0  0  0 
  4  6  1  0  0  0  0 
  7  5  2  0  0  0  0 
  5  8  1  0  0  0  0 
  6  9  1  0  0  0  0 
 10  7  1  0  0  0  0 
  8 11  2  0  0  0  0 
  9 12  1  0  0  0  0 
 13 10  2  0  0  0  0 
 11 13  1  0  0  0  0 
M  END
> <Name>
1-PHENYLHEPTANE

> <Source>
NIST3DMolFile

> <Tox>
-1.509

> <CAS>
1078-71-3

$$$$

  CDK

  8  7  0  0  0  0  0  0  0  0999 V2000
    0.0000    0.0000    0.0000 C   0  0  0  0  0  0  0  0  0  0  0  0
    1.4600   -0.0800    0.0400 C   0  0  0  0  0  0  0  0  0  0  0  0
   -0.3800    1.4600   -0.0400 C   0  0  0  0  0  0  0  0  0  0  0  0
    2.6200   -0.1600    0.1000 N   0  0  0  0  0  0  0  0  0  0  0  0
   -1.5000    1.8000   -0.6800 C   0  0  0  0  0  0  0  0  0  0  0  0
   -1.9000    3.2600   -0.7200 C   0  0  0  0  0  0  0  0  0  0  0  0
   -3.2800    3.3400   -1.1400 C   0  0  0  0  0  0  0  0  0  0  0  0
   -4.4000    3.4200   -1.4800 N   0  0  0  0  0  0  0  0  0  0  0  0
  1  2  1  0  0  0  0 
  1  3  1  0  0  0  0 
  2  4  3  0  0  0  0 
  5  3  2  0  0  0  0 
  6  5  1  0  0  0  0 
  7  6  1  0  0  0  0 
  7  8  3  0  0  0  0 
M  END
> <Name>
3-Hexenedinitrile

> <Source>
NIH3DMolFile

> <Tox>
-2.159

> <CAS>
1119-85-3

$$$$

  CDK

 14 13  0  0  0  0  0  0  0  0999 V2000
    0.0000   -0.6716    0.0000 C   0  0  0  0  0  0  0  0  0  0  0  0
    1.1491   -0.0000    0.0000 C   0  0  0  0  0  0  0  0  0  0  0  0
    2.2983   -0.6716    0.0000 C   0  0  0  0  0  0  0  0  0  0  0  0
    3.4325   -0.0000    0.0000 C   0  0  0  0  0  0  0  0  0  0  0  0
    4.5816   -0.6716    0.0000 C   0  0  0  0  0  0  0  0  0  0  0  0
    5.7308   -0.0000    0.0000 C   0  0  0  0  0  0  0  0  0  0  0  0
    6.8799   -0.6716    0.0000 C   0  0  0  0  0  0  0  0  0  0  0  0
    8.0440   -0.0000    0.0000 C   0  0  0  0  0  0  0  0  0  0  0  0
    9.1931   -0.6716    0.0000 C   0  0  0  0  0  0  0  0  0  0  0  0
   10.3422   -0.0000    0.0000 C   0  0  0  0  0  0  0  0  0  0  0  0
   11.4914   -0.6716    0.0000 C   0  0  0  0  0  0  0  0  0  0  0  0
   12.6256   -0.0000    0.0000 C   0  0  0  0  0  0  0  0  0  0  0  0
   13.7747   -0.6716    0.0000 C   0  0  0  0  0  0  0  0  0  0  0  0
   14.9238   -0.0000    0.0000 C   0  0  0  0  0  0  0  0  0  0  0  0
  1  2  2  0  0  0  0 
  2  3  1  0  0  0  0 
  3  4  1  0  0  0  0 
  4  5  1  0  0  0  0 
  5  6  1  0  0  0  0 
  6  7  1  0  0  0  0 
  7  8  1  0  0  0  0 
  8  9  1  0  0  0  0 
  9 10  1  0  0  0  0 
 10 11  1  0  0  0  0 
 11 12  1  0  0  0  0 
 12 13  1  0  0  0  0 
 13 14  1  0  0  0  0 
M  END
> <Name>
1-TETRADECENE

> <Source>
DSSTox2DMolFile

> <Tox>
-1.824

> <CAS>
1120-36-1

$$$$

  CDK

 10 10  0  0  0  0  0  0  0  0999 V2000
   -2.2590    0.3334   -0.5220 C   0  0  0  0  0  0  0  0  0  0  0  0
   -1.3919   -0.3801    0.5330 C   0  0  0  0  0  0  0  0  0  0  0  0
   -2.1602    1.7298   -0.4686 O   0  0  0  0  0  0  0  0  0  0  0  0
    0.0722   -0.1906    0.2454 C   0  0  0  0  0  0  0  0  0  0  0  0
   -1.7525   -1.8554    0.5885 C   0  0  0  0  0  0  0  0  0  0  0  0
    0.6511   -0.6881   -0.9242 C   0  0  0  0  0  0  0  0  0  0  0  0
    0.8716    0.4920    1.1649 C   0  0  0  0  0  0  0  0  0  0  0  0
    2.0070   -0.5046   -1.1689 C   0  0  0  0  0  0  0  0  0  0  0  0
    2.2277    0.6739    0.9173 C   0  0  0  0  0  0  0  0  0  0  0  0
    2.7976    0.1766   -0.2494 C   0  0  0  0  0  0  0  0  0  0  0  0
  1  2  1  0  0  0  0 
  1  3  1  0  0  0  0 
  2  4  1  0  0  0  0 
  2  5  1  0  0  0  0 
  4  6  1  0  0  0  0 
  4  7  2  0  0  0  0 
  6  8  2  0  0  0  0 
  9  7  1  0  0  0  0 
  8 10  1  0  0  0  0 
 10  9  2  0  0  0  0 
M  END
> <Name>
2-Phenylpropanol-1

> <Source>
DougDB3DMolFile

> <Tox>
-1.721

> <CAS>
1123-85-9

$$$$

  CDK

 14 14  0  0  0  0  0  0  0  0999 V2000
    3.4577   -1.3132    0.0000 C   0  0  0  0  0  0  0  0  0  0  0  0
    3.4577   -0.0000    0.0000 O   0  0  0  0  0  0  0  0  0  0  0  0
    2.3071   -1.9999    0.0000 S   0  0  0  0  0  0  0  0  0  0  0  0
    4.5962   -1.9999    0.0000 N   0  0  0  0  0  0  0  0  0  0  0  0
    1.1385   -1.3132    0.0000 C   0  0  0  0  0  0  0  0  0  0  0  0
    4.5962   -3.3191    0.0000 C   0  0  0  0  0  0  0  0  0  0  0  0
    5.7347   -1.3132    0.0000 C   0  0  0  0  0  0  0  0  0  0  0  0
    0.0000   -2.0180    0.0000 C   0  0  0  0  0  0  0  0  0  0  0  0
    5.7347   -4.0059    0.0000 C   0  0  0  0  0  0  0  0  0  0  0  0
    3.4577   -4.0059    0.0000 C   0  0  0  0  0  0  0  0  0  0  0  0
    5.7347   -0.0000    0.0000 C   0  0  0  0  0  0  0  0  0  0  0  0
    5.7347   -5.3371    0.0000 C   0  0  0  0  0  0  0  0  0  0  0  0
    3.4577   -5.3371    0.0000 C   0  0  0  0  0  0  0  0  0  0  0  0
    4.5962   -6.0238    0.0000 C   0  0  0  0  0  0  0  0  0  0  0  0
  1  2  2  0  0  0  0 
  1  3  1  0  0  0  0 
  1  4  1  0  0  0  0 
  3  5  1  0  0  0  0 
  4  6  1  0  0  0  0 
  4  7  1  0  0  0  0 
  5  8  1  0  0  0  0 
  6  9  1  0  0  0  0 
  6 10  1  0  0  0  0 
  7 11  1  0  0  0  0 
  9 12  1  0  0  0  0 
 13 10  1  0  0  0  0 
 12 14  1  0  0  0  0 
 14 13  1  0  0  0  0 
M  END
> <Name>
CYCLOATE

> <Source>
DSSTox2DMolFile

> <Tox>
-2.699

> <CAS>
1134-23-2

$$$$

  CDK

  5  4  0  0  0  0  0  0  0  0999 V2000
   -1.3530   -0.1070    0.0000 C   0  0  0  0  0  0  0  0  0  0  0  0
    0.0115   -0.5025    0.0001 C   0  0  0  0  0  0  0  0  0  0  0  0
   -2.4705    0.2052   -0.0001 N   0  0  0  0  0  0  0  0  0  0  0  0
    1.0027    0.3962    0.0003 C   0  0  0  0  0  0  0  0  0  0  0  0
    2.4283    0.0053   -0.0002 C   0  0  0  0  0  0  0  0  0  0  0  0
  1  2  1  0  0  0  0 
  1  3  3  0  0  0  0 
  2  4  2  0  0  0  0 
  4  5  1  0  0  0  0 
M  END
> <Name>
2-Butenenitrile, (Z)-

> <Source>
DougDB3DMolFile

> <Tox>
1.504

> <CAS>
1190-76-7

$$$$

  CDK

  5  5  0  0  0  0  0  0  0  0999 V2000
    2.6340    0.8300    0.7934 C   0  0  0  0  0  0  0  0  0  0  0  0
    1.1509    0.6435    0.8873 C   0  0  0  0  0  0  0  0  0  0  0  0
    2.9217    2.1426    0.8438 C   0  0  0  0  0  0  0  0  0  0  0  0
    0.6468    2.0948    1.0007 C   0  0  0  0  0  0  0  0  0  0  0  0
    1.8087    2.9498    0.9649 O   0  0  0  0  0  0  0  0  0  0  0  0
  1  2  1  0  0  0  0 
  3  1  2  0  0  0  0 
  2  4  1  0  0  0  0 
  5  3  1  0  0  0  0 
  4  5  1  0  0  0  0 
M  END
> <Name>
Furan, 2,3-dihydro-

> <Source>
NIST3DMolFile

> <Tox>
2.398

> <CAS>
1191-99-7

$$$$

  CDK

 11 12  0  0  0  0  0  0  0  0999 V2000
    3.2964   -3.7546    0.0000 O   0  0  0  0  0  0  0  0  0  0  0  0
    3.0607   -2.5713    0.0000 C   0  0  0  0  0  0  0  0  0  0  0  0
    1.9263   -2.0686    0.0000 C   0  0  0  0  0  0  0  0  0  0  0  0
    3.4077   -1.8595    0.0000 C   0  0  0  0  0  0  0  0  0  0  0  0
    0.0000   -2.6647    0.0000 C   0  0  0  0  0  0  0  0  0  0  0  0
    1.6238   -0.0000    0.0000 C   0  0  0  0  0  0  0  0  0  0  0  0
    1.3746   -2.6959    0.0000 C   0  0  0  0  0  0  0  0  0  0  0  0
    2.1309   -1.2768    0.0000 C   0  0  0  0  0  0  0  0  0  0  0  0
    4.1951   -0.9920    0.0000 C   0  0  0  0  0  0  0  0  0  0  0  0
    4.4486   -2.3177    0.0000 C   0  0  0  0  0  0  0  0  0  0  0  0
    0.7429   -1.6549    0.0000 C   0  0  0  0  0  0  0  0  0  0  0  0
  1  2  2  0  0  0  0 
  3  2  1  0  0  0  0 
  2  4  1  0  0  0  0 
  5  3  1  0  0  0  0 
  3  6  1  0  0  0  0 
  3  7  1  0  0  0  0 
  8  4  1  0  0  0  0 
  4  9  1  0  0  0  0 
  4 10  1  0  0  0  0 
  5 11  1  0  0  0  0 
  8  6  1  0  0  0  0 
 11  8  1  0  0  0  0 
M  END
> <Name>
FENCHONE

> <Source>
DSSTox2DMolFile

> <Tox>
-0.088

> <CAS>
1195-79-5

$$$$

  CDK

 14 15  0  0  0  0  0  0  0  0999 V2000
    2.6307    1.9730    0.0000 N   0  0  0  0  0  0  0  0  0  0  0  0
    3.3895    1.4671    0.0000 C   0  0  0  0  0  0  0  0  0  0  0  0
    1.7706    1.4671    0.0000 C   0  0  0  0  0  0  0  0  0  0  0  0
    4.3001    2.0236    0.0000 C   0  0  0  0  0  0  0  0  0  0  0  0
    3.3895    0.5565    0.0000 C   0  0  0  0  0  0  0  0  0  0  0  0
    1.7706    0.5565    0.0000 C   0  0  0  0  0  0  0  0  0  0  0  0
    0.8600    2.0236    0.0000 C   0  0  0  0  0  0  0  0  0  0  0  0
    5.2107    1.5177    0.0000 C   0  0  0  0  0  0  0  0  0  0  0  0
    4.3001    0.0506    0.0000 C   0  0  0  0  0  0  0  0  0  0  0  0
    0.8600    0.0000    0.0000 C   0  0  0  0  0  0  0  0  0  0  0  0
    0.0000    1.4671    0.0000 C   0  0  0  0  0  0  0  0  0  0  0  0
    5.2107    0.5565    0.0000 C   0  0  0  0  0  0  0  0  0  0  0  0
    6.0707    2.0236    0.0000 C   0  0  0  0  0  0  0  0  0  0  0  0
    0.0000    0.5059    0.0000 C   0  0  0  0  0  0  0  0  0  0  0  0
  1  2  1  0  0  0  0 
  1  3  1  0  0  0  0 
  2  4  2  0  0  0  0 
  5  2  1  0  0  0  0 
  3  6  2  0  0  0  0 
  7  3  1  0  0  0  0 
  4  8  1  0  0  0  0 
  9  5  2  0  0  0  0 
  6 10  1  0  0  0  0 
 11  7  2  0  0  0  0 
  8 12  2  0  0  0  0 
  8 13  1  0  0  0  0 
 12  9  1  0  0  0  0 
 10 14  2  0  0  0  0 
 14 11  1  0  0  0  0 
M  END
> <Name>
3-METHYL DIPHENYL AMINE

> <Source>
NIST2DMolFile

> <Tox>
-3.827

> <CAS>
1205-64-7

$$$$

  CDK

 25 26  0  0  0  0  0  0  0  0999 V2000
    3.9377   -5.7609    0.0000 O   0  0  0  0  0  0  0  0  0  0  0  0
    4.6088   -4.6088    0.0000 P   0  0  0  0  0  0  0  0  0  0  0  0
    3.4566   -3.9504    0.0000 O   0  0  0  0  0  0  0  0  0  0  0  0
    5.2672   -3.4566    0.0000 O   0  0  0  0  0  0  0  0  0  0  0  0
    5.7609   -5.2798    0.0000 O   0  0  0  0  0  0  0  0  0  0  0  0
    2.3044   -4.6088    0.0000 C   0  0  0  0  0  0  0  0  0  0  0  0
    4.6088   -2.3044    0.0000 C   0  0  0  0  0  0  0  0  0  0  0  0
    6.9005   -4.6088    0.0000 C   0  0  0  0  0  0  0  0  0  0  0  0
    2.3044   -5.9382    0.0000 C   0  0  0  0  0  0  0  0  0  0  0  0
    1.1522   -3.9504    0.0000 C   0  0  0  0  0  0  0  0  0  0  0  0
    5.2672   -1.1522    0.0000 C   0  0  0  0  0  0  0  0  0  0  0  0
    3.2793   -2.3044    0.0000 C   0  0  0  0  0  0  0  0  0  0  0  0
    8.0527   -5.2798    0.0000 C   0  0  0  0  0  0  0  0  0  0  0  0
    1.1522   -6.6093    0.0000 C   0  0  0  0  0  0  0  0  0  0  0  0
    0.0000   -4.6088    0.0000 C   0  0  0  0  0  0  0  0  0  0  0  0
    4.6088   -0.0000    0.0000 C   0  0  0  0  0  0  0  0  0  0  0  0
    2.6083   -1.1522    0.0000 C   0  0  0  0  0  0  0  0  0  0  0  0
    8.0527   -6.6093    0.0000 C   0  0  0  0  0  0  0  0  0  0  0  0
    9.2049   -4.6088    0.0000 C   0  0  0  0  0  0  0  0  0  0  0  0
    0.0000   -5.9382    0.0000 C   0  0  0  0  0  0  0  0  0  0  0  0
    3.2793   -0.0000    0.0000 C   0  0  0  0  0  0  0  0  0  0  0  0
    9.2049   -7.2677    0.0000 C   0  0  0  0  0  0  0  0  0  0  0  0
   10.3570   -5.2798    0.0000 C   0  0  0  0  0  0  0  0  0  0  0  0
   11.5092   -4.6088    0.0000 C   0  0  0  0  0  0  0  0  0  0  0  0
   12.6614   -5.2798    0.0000 C   0  0  0  0  0  0  0  0  0  0  0  0
  1  2  2  0  0  0  0 
  2  3  1  0  0  0  0 
  2  4  1  0  0  0  0 
  2  5  1  0  0  0  0 
  3  6  1  0  0  0  0 
  4  7  1  0  0  0  0 
  5  8  1  0  0  0  0 
  6  9  2  0  0  0  0 
  6 10  1  0  0  0  0 
  7 11  2  0  0  0  0 
  7 12  1  0  0  0  0 
  8 13  1  0  0  0  0 
  9 14  1  0  0  0  0 
 15 10  2  0  0  0  0 
 11 16  1  0  0  0  0 
 17 12  2  0  0  0  0 
 13 18  1  0  0  0  0 
 13 19  1  0  0  0  0 
 14 20  2  0  0  0  0 
 20 15  1  0  0  0  0 
 16 21  2  0  0  0  0 
 21 17  1  0  0  0  0 
 18 22  1  0  0  0  0 
 19 23  1  0  0  0  0 
 23 24  1  0  0  0  0 
 24 25  1  0  0  0  0 
M  END
> <Name>
2-ETHYLHEXYL DIPHENYL PHOSPHATE

> <Source>
DSSTox2DMolFile

> <Tox>
-4.301

> <CAS>
1241-94-7

$$$$

  CDK

 10  9  0  0  0  0  0  0  0  0999 V2000
    4.3473    0.4997    0.0000 C   0  0  0  0  0  0  0  0  0  0  0  0
    3.4478    0.0000    0.0000 C   0  0  0  0  0  0  0  0  0  0  0  0
    5.1968    0.0000    0.0000 C   0  0  0  0  0  0  0  0  0  0  0  0
    2.5984    0.4997    0.0000 C   0  0  0  0  0  0  0  0  0  0  0  0
    6.0462    0.4997    0.0000 C   0  0  0  0  0  0  0  0  0  0  0  0
    1.7489    0.0000    0.0000 C   0  0  0  0  0  0  0  0  0  0  0  0
    6.9457    0.0000    0.0000 C   0  0  0  0  0  0  0  0  0  0  0  0
    0.8495    0.4997    0.0000 C   0  0  0  0  0  0  0  0  0  0  0  0
    7.7951    0.4997    0.0000 S   0  0  0  0  0  0  0  0  0  0  0  0
    0.0000    0.0000    0.0000 C   0  0  0  0  0  0  0  0  0  0  0  0
  1  2  1  0  0  0  0 
  1  3  1  0  0  0  0 
  2  4  1  0  0  0  0 
  3  5  1  0  0  0  0 
  4  6  1  0  0  0  0 
  5  7  1  0  0  0  0 
  6  8  1  0  0  0  0 
  7  9  1  0  0  0  0 
  8 10  1  0  0  0  0 
M  END
> <Name>
1-NONANETHIOL

> <Source>
NIST2DMolFile

> <Tox>
-0.879

> <CAS>
1455-21-6

$$$$

  CDK

  7  6  0  0  0  0  0  0  0  0999 V2000
    3.2377    3.2612    2.0834 C   0  0  0  0  0  0  0  0  0  0  0  0
    1.9139    3.7804    2.0409 O   0  0  0  0  0  0  0  0  0  0  0  0
    4.1900    4.4524    2.0352 C   0  0  0  0  0  0  0  0  0  0  0  0
    0.9071    2.7978    2.1604 C   0  0  0  0  0  0  0  0  0  0  0  0
    5.6265    3.9829    1.9916 C   0  0  0  0  0  0  0  0  0  0  0  0
    0.8002    1.9008    0.9666 C   0  0  0  0  0  0  0  0  0  0  0  0
    0.3784    0.6456    1.0573 C   0  0  0  0  0  0  0  0  0  0  0  0
  1  2  1  0  0  0  0 
  1  3  1  0  0  0  0 
  2  4  1  0  0  0  0 
  3  5  1  0  0  0  0 
  4  6  1  0  0  0  0 
  6  7  2  0  0  0  0 
M  END
> <Name>
ALLYL PROPYL ETHER

> <Source>
NIST3DMolFile

> <Tox>
1.784

> <CAS>
1471-03-0

$$$$

  CDK

 26 30  0  0  0  0  0  0  0  0999 V2000
   -1.3937   -0.0001   -0.0008 C   0  0  0  0  0  0  0  0  0  0  0  0
   -0.7062    1.2250   -0.0006 C   0  0  0  0  0  0  0  0  0  0  0  0
   -0.7058   -1.2251   -0.0006 C   0  0  0  0  0  0  0  0  0  0  0  0
   -2.8563    0.0000    0.0001 C   0  0  0  0  0  0  0  0  0  0  0  0
    0.7058    1.2253   -0.0003 C   0  0  0  0  0  0  0  0  0  0  0  0
   -1.3934    2.4502   -0.0006 C   0  0  0  0  0  0  0  0  0  0  0  0
    0.7063   -1.2248   -0.0001 C   0  0  0  0  0  0  0  0  0  0  0  0
   -1.3924   -2.4506   -0.0006 C   0  0  0  0  0  0  0  0  0  0  0  0
   -3.5386    0.0005   -1.2077 C   0  0  0  0  0  0  0  0  0  0  0  0
   -3.5377   -0.0011    1.2083 C   0  0  0  0  0  0  0  0  0  0  0  0
    1.3937    0.0004    0.0000 C   0  0  0  0  0  0  0  0  0  0  0  0
    1.3925    2.4509    0.0001 C   0  0  0  0  0  0  0  0  0  0  0  0
   -0.6963    3.6586   -0.0005 C   0  0  0  0  0  0  0  0  0  0  0  0
    1.3934   -2.4500    0.0001 C   0  0  0  0  0  0  0  0  0  0  0  0
   -0.6948   -3.6587   -0.0007 C   0  0  0  0  0  0  0  0  0  0  0  0
   -4.9335    0.0003   -1.2073 C   0  0  0  0  0  0  0  0  0  0  0  0
   -4.9326   -0.0014    1.2087 C   0  0  0  0  0  0  0  0  0  0  0  0
    2.8563    0.0004    0.0000 C   0  0  0  0  0  0  0  0  0  0  0  0
    0.6948    3.6588   -0.0001 C   0  0  0  0  0  0  0  0  0  0  0  0
    0.6963   -3.6583   -0.0004 C   0  0  0  0  0  0  0  0  0  0  0  0
   -5.6304   -0.0007    0.0009 C   0  0  0  0  0  0  0  0  0  0  0  0
    3.5379    0.0007    1.2081 C   0  0  0  0  0  0  0  0  0  0  0  0
    3.5383   -0.0003   -1.2079 C   0  0  0  0  0  0  0  0  0  0  0  0
    4.9328    0.0006    1.2085 C   0  0  0  0  0  0  0  0  0  0  0  0
    4.9332   -0.0006   -1.2075 C   0  0  0  0  0  0  0  0  0  0  0  0
    5.6304   -0.0002    0.0007 C   0  0  0  0  0  0  0  0  0  0  0  0
  1  2  2  0  0  0  0 
  1  3  1  0  0  0  0 
  1  4  1  0  0  0  0 
  2  5  1  0  0  0  0 
  2  6  1  0  0  0  0 
  3  7  1  0  0  0  0 
  3  8  2  0  0  0  0 
  4  9  2  0  0  0  0 
  4 10  1  0  0  0  0 
 11  5  2  0  0  0  0 
  5 12  1  0  0  0  0 
  6 13  2  0  0  0  0 
 11  7  1  0  0  0  0 
  7 14  2  0  0  0  0 
  8 15  1  0  0  0  0 
  9 16  1  0  0  0  0 
 10 17  2  0  0  0  0 
 11 18  1  0  0  0  0 
 12 19  2  0  0  0  0 
 13 19  1  0  0  0  0 
 14 20  1  0  0  0  0 
 15 20  2  0  0  0  0 
 16 21  2  0  0  0  0 
 17 21  1  0  0  0  0 
 18 22  2  0  0  0  0 
 18 23  1  0  0  0  0 
 22 24  1  0  0  0  0 
 23 25  2  0  0  0  0 
 24 26  2  0  0  0  0 
 25 26  1  0  0  0  0 
M  END
> <Name>
9,10-DIPHENYLANTHRACENE

> <Source>
Chemidplus3DMolFile

> <Tox>
-9.845

> <CAS>
1499-10-1

$$$$

  CDK

  7  7  0  0  0  0  0  0  0  0999 V2000
    1.1527   -1.3282    0.0000 C   0  0  0  0  0  0  0  0  0  0  0  0
    2.3054   -2.0023    0.0000 C   0  0  0  0  0  0  0  0  0  0  0  0
    0.0000   -2.0023    0.0000 C   0  0  0  0  0  0  0  0  0  0  0  0
    1.1527   -0.0000    0.0000 S   0  0  0  0  0  0  0  0  0  0  0  0
    2.3054   -3.3305    0.0000 C   0  0  0  0  0  0  0  0  0  0  0  0
    0.0000   -3.3305    0.0000 C   0  0  0  0  0  0  0  0  0  0  0  0
    1.1527   -3.9886    0.0000 C   0  0  0  0  0  0  0  0  0  0  0  0
  1  2  1  0  0  0  0 
  1  3  1  0  0  0  0 
  1  4  1  0  0  0  0 
  2  5  1  0  0  0  0 
  6  3  1  0  0  0  0 
  5  7  1  0  0  0  0 
  7  6  1  0  0  0  0 
M  END
> <Name>
CYCLOHEXANETHIOL

> <Source>
DSSTox2DMolFile

> <Tox>
0.599

> <CAS>
1569-69-3

$$$$

  CDK

 12 11  0  0  0  0  0  0  0  0999 V2000
    3.4548    4.5071    4.4139 C   0  0  0  0  0  0  0  0  0  0  0  0
    3.8271    4.0263    3.0201 C   0  0  0  0  0  0  0  0  0  0  0  0
    1.9854    4.2662    4.7128 C   0  0  0  0  0  0  0  0  0  0  0  0
    5.3310    4.0871    2.7962 C   0  0  0  0  0  0  0  0  0  0  0  0
    1.5521    4.8278    6.0582 C   0  0  0  0  0  0  0  0  0  0  0  0
    6.0578    3.0792    3.6771 C   0  0  0  0  0  0  0  0  0  0  0  0
    1.9511    3.9473    7.2564 C   0  0  0  0  0  0  0  0  0  0  0  0
    5.7614    1.6367    3.2878 C   0  0  0  0  0  0  0  0  0  0  0  0
    1.0419    4.2414    8.4507 C   0  0  0  0  0  0  0  0  0  0  0  0
    3.3103    4.0754    7.6089 O   0  0  0  0  0  0  0  0  0  0  0  0
    6.6358    1.1050    2.1610 C   0  0  0  0  0  0  0  0  0  0  0  0
    6.1346    1.4950    0.7882 C   0  0  0  0  0  0  0  0  0  0  0  0
  1  2  1  0  0  0  0 
  1  3  1  0  0  0  0 
  2  4  1  0  0  0  0 
  3  5  1  0  0  0  0 
  4  6  1  0  0  0  0 
  5  7  1  0  0  0  0 
  6  8  1  0  0  0  0 
  7  9  1  0  0  0  0 
  7 10  1  0  0  0  0 
  8 11  1  0  0  0  0 
 11 12  1  0  0  0  0 
M  END
> <Name>
2-UNDECANOL

> <Source>
NIST3DMolFile

> <Tox>
-1.476

> <CAS>
1653-30-1

$$$$

  CDK

  9  8  0  0  0  0  0  0  0  0999 V2000
    0.0000    0.4621   -0.0004 O   0  0  0  0  0  0  0  0  0  0  0  0
    1.1846   -0.3206   -0.0038 C   0  0  0  0  0  0  0  0  0  0  0  0
   -1.1844   -0.3207   -0.0039 C   0  0  0  0  0  0  0  0  0  0  0  0
    2.3489    0.6750    0.0006 C   0  0  0  0  0  0  0  0  0  0  0  0
   -2.3488    0.6748    0.0000 C   0  0  0  0  0  0  0  0  0  0  0  0
    3.6115   -0.0321    0.0016 C   0  0  0  0  0  0  0  0  0  0  0  0
   -3.6114   -0.0325    0.0016 C   0  0  0  0  0  0  0  0  0  0  0  0
    4.6258   -0.5927    0.0025 N   0  0  0  0  0  0  0  0  0  0  0  0
   -4.6262   -0.5922    0.0029 N   0  0  0  0  0  0  0  0  0  0  0  0
  1  2  1  0  0  0  0 
  1  3  1  0  0  0  0 
  4  2  1  0  0  0  0 
  5  3  1  0  0  0  0 
  6  4  1  0  0  0  0 
  7  5  1  0  0  0  0 
  6  8  3  0  0  0  0 
  7  9  3  0  0  0  0 
M  END
> <Name>
Propanenitrile, 3,3'-oxybis-

> <Source>
DougDB3DMolFile

> <Tox>
-3.757

> <CAS>
1656-48-0

$$$$

  CDK

  6  5  0  0  0  0  0  0  0  0999 V2000
    2.0187    2.6832    2.4814 C   0  0  0  0  0  0  0  0  0  0  0  0
    0.6406    2.8102    1.8719 C   0  0  0  0  0  0  0  0  0  0  0  0
    3.0487    1.9656    1.5968 C   0  0  0  0  0  0  0  0  0  0  0  0
    4.3533    1.8372    2.3784 C   0  0  0  0  0  0  0  0  0  0  0  0
    2.5633    0.5816    1.1876 C   0  0  0  0  0  0  0  0  0  0  0  0
    3.3590    2.8671    0.0000 S   0  0  0  0  0  0  0  0  0  0  0  0
  1  2  1  0  0  0  0 
  1  3  1  0  0  0  0 
  3  4  1  0  0  0  0 
  3  5  1  0  0  0  0 
  3  6  1  0  0  0  0 
M  END
> <Name>
2-METHYL-2-BUTANETHIOL

> <Source>
NIST3DMolFile

> <Tox>
1.680

> <CAS>
1679-09-0

$$$$

  CDK

 18 20  0  0  0  0  0  0  0  0999 V2000
    9.2104   -2.6618    0.0000 Cl  0  0  0  0  0  0  0  0  0  0  0  0
    8.0591   -1.9986    0.0000 C   0  0  0  0  0  0  0  0  0  0  0  0
    6.9078   -2.6618    0.0000 C   0  0  0  0  0  0  0  0  0  0  0  0
    8.0591   -0.6631    0.0000 C   0  0  0  0  0  0  0  0  0  0  0  0
    5.7565   -1.9986    0.0000 C   0  0  0  0  0  0  0  0  0  0  0  0
    6.9078   -0.0000    0.0000 C   0  0  0  0  0  0  0  0  0  0  0  0
    9.2104   -0.0000    0.0000 Cl  0  0  0  0  0  0  0  0  0  0  0  0
    5.7565   -0.6631    0.0000 C   0  0  0  0  0  0  0  0  0  0  0  0
    4.6052   -2.6618    0.0000 O   0  0  0  0  0  0  0  0  0  0  0  0
    4.6052   -0.0000    0.0000 O   0  0  0  0  0  0  0  0  0  0  0  0
    3.4539   -1.9986    0.0000 C   0  0  0  0  0  0  0  0  0  0  0  0
    3.4539   -0.6631    0.0000 C   0  0  0  0  0  0  0  0  0  0  0  0
    2.3026   -2.6618    0.0000 C   0  0  0  0  0  0  0  0  0  0  0  0
    2.3026   -0.0000    0.0000 C   0  0  0  0  0  0  0  0  0  0  0  0
    1.1513   -1.9986    0.0000 C   0  0  0  0  0  0  0  0  0  0  0  0
    1.1513   -0.6631    0.0000 C   0  0  0  0  0  0  0  0  0  0  0  0
    0.0000   -2.6618    0.0000 Cl  0  0  0  0  0  0  0  0  0  0  0  0
    0.0000   -0.0000    0.0000 Cl  0  0  0  0  0  0  0  0  0  0  0  0
  1  2  1  0  0  0  0 
  2  3  2  0  0  0  0 
  2  4  1  0  0  0  0 
  3  5  1  0  0  0  0 
  6  4  2  0  0  0  0 
  4  7  1  0  0  0  0 
  5  8  2  0  0  0  0 
  5  9  1  0  0  0  0 
  8  6  1  0  0  0  0 
  8 10  1  0  0  0  0 
 11  9  1  0  0  0  0 
 10 12  1  0  0  0  0 
 12 11  2  0  0  0  0 
 11 13  1  0  0  0  0 
 12 14  1  0  0  0  0 
 13 15  2  0  0  0  0 
 16 14  2  0  0  0  0 
 15 16  1  0  0  0  0 
 15 17  1  0  0  0  0 
 16 18  1  0  0  0  0 
M  END
> <Name>
2,3,7,8-TETRACHLORODIBENZO-P-DIOXIN

> <Source>
DSSTox2DMolFile

> <Tox>
-8.824

> <CAS>
1746-01-6

$$$$

  CDK

  6  6  0  0  0  0  0  0  0  0999 V2000
    4.0131    1.9587    1.7233 C   0  0  0  0  0  0  0  0  0  0  0  0
    4.4567    0.5328    1.7885 C   0  0  0  0  0  0  0  0  0  0  0  0
    3.1605    0.8806    1.1036 C   0  0  0  0  0  0  0  0  0  0  0  0
    1.8719    0.5215    1.7607 C   0  0  0  0  0  0  0  0  0  0  0  0
    0.7806    0.6429    0.9675 O   0  0  0  0  0  0  0  0  0  0  0  0
    1.6571    0.1375    2.8970 O   0  0  0  0  0  0  0  0  0  0  0  0
  1  2  1  0  0  0  0 
  3  1  1  0  0  0  0 
  2  3  1  0  0  0  0 
  3  4  1  0  0  0  0 
  4  5  1  0  0  0  0 
  4  6  2  0  0  0  0 
M  END
> <Name>
CYCLOPROPANECARBOXYLIC ACID

> <Source>
NIST3DMolFile

> <Tox>
-0.620

> <CAS>
1759-53-1

$$$$

  CDK

 23 23  0  0  0  0  0  0  0  0999 V2000
    3.4486   -1.9884    0.0000 C   0  0  0  0  0  0  0  0  0  0  0  0
    4.5981   -2.6615    0.0000 C   0  0  0  0  0  0  0  0  0  0  0  0
    3.4486   -0.6628    0.0000 N   0  0  0  0  0  0  0  0  0  0  0  0
    2.2887   -2.6615    0.0000 C   0  0  0  0  0  0  0  0  0  0  0  0
    4.5981   -3.9871    0.0000 C   0  0  0  0  0  0  0  0  0  0  0  0
    5.7477   -1.9884    0.0000 N   0  0  0  0  0  0  0  0  0  0  0  0
    2.2887   -0.0000    0.0000 O   0  0  0  0  0  0  0  0  0  0  0  0
    4.5981   -0.0000    0.0000 O   0  0  0  0  0  0  0  0  0  0  0  0
    2.2887   -3.9871    0.0000 C   0  0  0  0  0  0  0  0  0  0  0  0
    5.7477   -4.6499    0.0000 N   0  0  0  0  0  0  0  0  0  0  0  0
    3.4486   -4.6499    0.0000 C   0  0  0  0  0  0  0  0  0  0  0  0
    5.7477   -0.6628    0.0000 C   0  0  0  0  0  0  0  0  0  0  0  0
    6.8972   -2.6615    0.0000 C   0  0  0  0  0  0  0  0  0  0  0  0
    1.1392   -4.6499    0.0000 C   0  0  0  0  0  0  0  0  0  0  0  0
    5.7477   -5.9755    0.0000 O   0  0  0  0  0  0  0  0  0  0  0  0
    6.8972   -3.9871    0.0000 O   0  0  0  0  0  0  0  0  0  0  0  0
    6.8972   -0.0000    0.0000 C   0  0  0  0  0  0  0  0  0  0  0  0
    8.0571   -1.9884    0.0000 C   0  0  0  0  0  0  0  0  0  0  0  0
    0.4764   -3.4900    0.0000 F   0  0  0  0  0  0  0  0  0  0  0  0
    1.8123   -5.7994    0.0000 F   0  0  0  0  0  0  0  0  0  0  0  0
    0.0000   -5.3127    0.0000 F   0  0  0  0  0  0  0  0  0  0  0  0
    9.2066   -2.6615    0.0000 C   0  0  0  0  0  0  0  0  0  0  0  0
   10.3561   -1.9884    0.0000 C   0  0  0  0  0  0  0  0  0  0  0  0
  1  2  2  0  0  0  0 
  1  3  1  0  0  0  0 
  1  4  1  0  0  0  0 
  5  2  1  0  0  0  0 
  2  6  1  0  0  0  0 
  3  7  1  0  0  0  0 
  3  8  2  0  0  0  0 
  9  4  2  0  0  0  0 
  5 10  1  0  0  0  0 
  5 11  2  0  0  0  0 
  6 12  1  0  0  0  0 
  6 13  1  0  0  0  0 
 14  9  1  0  0  0  0 
  9 11  1  0  0  0  0 
 10 15  1  0  0  0  0 
 10 16  2  0  0  0  0 
 12 17  1  0  0  0  0 
 13 18  1  0  0  0  0 
 14 19  1  0  0  0  0 
 14 20  1  0  0  0  0 
 14 21  1  0  0  0  0 
 18 22  1  0  0  0  0 
 22 23  1  0  0  0  0 
M  CHG  1   3   1
M  CHG  1   7  -1
M  CHG  1  10   1
M  CHG  1  15  -1
M  END
> <Name>
BENEFIN

> <Source>
DSSTox2DMolFile

> <Tox>
-4.185

> <CAS>
1861-40-1

$$$$

  CDK

 13 12  0  0  0  0  0  0  0  0999 V2000
    2.3038   -1.3283    0.0000 C   0  0  0  0  0  0  0  0  0  0  0  0
    3.4453   -1.9856    0.0000 N   0  0  0  0  0  0  0  0  0  0  0  0
    2.3038   -0.0000    0.0000 O   0  0  0  0  0  0  0  0  0  0  0  0
    1.1415   -1.9994    0.0000 S   0  0  0  0  0  0  0  0  0  0  0  0
    4.6007   -1.3145    0.0000 C   0  0  0  0  0  0  0  0  0  0  0  0
    3.4453   -3.3208    0.0000 C   0  0  0  0  0  0  0  0  0  0  0  0
    1.1415   -3.3277    0.0000 C   0  0  0  0  0  0  0  0  0  0  0  0
    5.7630   -1.9856    0.0000 C   0  0  0  0  0  0  0  0  0  0  0  0
    2.3038   -3.9780    0.0000 C   0  0  0  0  0  0  0  0  0  0  0  0
    0.0000   -3.9919    0.0000 C   0  0  0  0  0  0  0  0  0  0  0  0
    6.9183   -1.3145    0.0000 C   0  0  0  0  0  0  0  0  0  0  0  0
    2.3038   -5.3063    0.0000 C   0  0  0  0  0  0  0  0  0  0  0  0
    0.0000   -5.3202    0.0000 C   0  0  0  0  0  0  0  0  0  0  0  0
  1  2  1  0  0  0  0 
  1  3  2  0  0  0  0 
  1  4  1  0  0  0  0 
  2  5  1  0  0  0  0 
  2  6  1  0  0  0  0 
  4  7  1  0  0  0  0 
  5  8  1  0  0  0  0 
  6  9  1  0  0  0  0 
  7 10  1  0  0  0  0 
  8 11  1  0  0  0  0 
  9 12  1  0  0  0  0 
 10 13  1  0  0  0  0 
M  END
> <Name>
VERNOLATE

> <Source>
DSSTox2DMolFile

> <Tox>
-1.983

> <CAS>
1929-77-7

$$$$

  CDK

  8  7  0  0  0  0  0  0  0  0999 V2000
    4.3326    1.0315    1.8360 C   0  0  0  0  0  0  0  0  0  0  0  0
    3.1404    1.0152    1.8635 C   0  0  0  0  0  0  0  0  0  0  0  0
    5.7712    1.0462    1.8071 C   0  0  0  0  0  0  0  0  0  0  0  0
    1.7013    0.9972    1.8959 C   0  0  0  0  0  0  0  0  0  0  0  0
    6.3030    2.2972    1.1163 C   0  0  0  0  0  0  0  0  0  0  0  0
    1.0883    2.0913    1.0287 C   0  0  0  0  0  0  0  0  0  0  0  0
    7.8146    2.3024    1.0879 C   0  0  0  0  0  0  0  0  0  0  0  0
    1.3255    3.4729    1.5948 C   0  0  0  0  0  0  0  0  0  0  0  0
  1  2  3  0  0  0  0 
  1  3  1  0  0  0  0 
  2  4  1  0  0  0  0 
  3  5  1  0  0  0  0 
  4  6  1  0  0  0  0 
  5  7  1  0  0  0  0 
  6  8  1  0  0  0  0 
M  END
> <Name>
4-OCTYNE

> <Source>
NIST3DMolFile

> <Tox>
0.985

> <CAS>
1942-45-6

$$$$

  CDK

  8  7  0  0  0  0  0  0  0  0999 V2000
    1.7491    1.4992    0.0000 C   0  0  0  0  0  0  0  0  0  0  0  0
    2.5986    0.9995    0.0000 C   0  0  0  0  0  0  0  0  0  0  0  0
    0.8495    0.9995    0.0000 C   0  0  0  0  0  0  0  0  0  0  0  0
    3.4482    1.4992    0.0000 C   0  0  0  0  0  0  0  0  0  0  0  0
    0.8495    0.0000    0.0000 Br  0  0  0  0  0  0  0  0  0  0  0  0
    0.0000    1.4992    0.0000 C   0  0  0  0  0  0  0  0  0  0  0  0
    4.3477    0.9995    0.0000 C   0  0  0  0  0  0  0  0  0  0  0  0
    5.1972    1.4992    0.0000 C   0  0  0  0  0  0  0  0  0  0  0  0
  1  2  1  0  0  0  0 
  1  3  1  0  0  0  0 
  2  4  1  0  0  0  0 
  3  5  1  0  0  0  0 
  3  6  1  0  0  0  0 
  4  7  1  0  0  0  0 
  7  8  1  0  0  0  0 
M  END
> <Name>
2-BROMOHEPTANE

> <Source>
NIST2DMolFile

> <Tox>
0.358

> <CAS>
1974-04-5

$$$$

  CDK

  8  8  0  0  0  0  0  0  0  0999 V2000
    1.9146    1.1809    1.5063 C   0  0  0  0  0  0  0  0  0  0  0  0
    2.6527    2.4480    1.9087 C   0  0  0  0  0  0  0  0  0  0  0  0
    0.7272    0.9178    2.4028 C   0  0  0  0  0  0  0  0  0  0  0  0
    3.9135    2.6602    1.0715 C   0  0  0  0  0  0  0  0  0  0  0  0
    4.6522    3.9349    1.4933 C   0  0  0  0  0  0  0  0  0  0  0  0
    4.9286    1.5297    1.2702 C   0  0  0  0  0  0  0  0  0  0  0  0
    5.7602    3.5116    2.4547 C   0  0  0  0  0  0  0  0  0  0  0  0
    5.8993    1.9942    2.3498 C   0  0  0  0  0  0  0  0  0  0  0  0
  1  2  1  0  0  0  0 
  1  3  1  0  0  0  0 
  2  4  1  0  0  0  0 
  4  5  1  0  0  0  0 
  6  4  1  0  0  0  0 
  5  7  1  0  0  0  0 
  8  6  1  0  0  0  0 
  7  8  1  0  0  0  0 
M  END
> <Name>
PROPYLCYCLOPENTANE

> <Source>
NIST3DMolFile

> <Tox>
1.093

> <CAS>
2040-96-2

$$$$

  CDK

 14 15  0  0  0  0  0  0  0  0999 V2000
    3.9963   -1.1458    0.0000 C   0  0  0  0  0  0  0  0  0  0  0  0
    5.3190   -1.1458    0.0000 C   0  0  0  0  0  0  0  0  0  0  0  0
    3.3256   -2.3009    0.0000 C   0  0  0  0  0  0  0  0  0  0  0  0
    3.3256   -0.0000    0.0000 C   0  0  0  0  0  0  0  0  0  0  0  0
    5.9897   -0.0000    0.0000 C   0  0  0  0  0  0  0  0  0  0  0  0
    5.9897   -2.3009    0.0000 C   0  0  0  0  0  0  0  0  0  0  0  0
    1.9935   -2.3009    0.0000 C   0  0  0  0  0  0  0  0  0  0  0  0
    1.9935   -0.0000    0.0000 C   0  0  0  0  0  0  0  0  0  0  0  0
    7.3218   -0.0000    0.0000 C   0  0  0  0  0  0  0  0  0  0  0  0
    7.3218   -2.3009    0.0000 C   0  0  0  0  0  0  0  0  0  0  0  0
    1.3321   -1.1458    0.0000 C   0  0  0  0  0  0  0  0  0  0  0  0
    7.9832   -1.1458    0.0000 C   0  0  0  0  0  0  0  0  0  0  0  0
    0.0000   -1.1458    0.0000 Cl  0  0  0  0  0  0  0  0  0  0  0  0
    9.3153   -1.1458    0.0000 Cl  0  0  0  0  0  0  0  0  0  0  0  0
  1  2  1  0  0  0  0 
  1  3  1  0  0  0  0 
  1  4  2  0  0  0  0 
  2  5  2  0  0  0  0 
  2  6  1  0  0  0  0 
  3  7  2  0  0  0  0 
  8  4  1  0  0  0  0 
  5  9  1  0  0  0  0 
 10  6  2  0  0  0  0 
  7 11  1  0  0  0  0 
 11  8  2  0  0  0  0 
  9 12  2  0  0  0  0 
 12 10  1  0  0  0  0 
 11 13  1  0  0  0  0 
 12 14  1  0  0  0  0 
M  END
> <Name>
4,4'-DICHLOROBIPHENYL

> <Source>
DSSTox2DMolFile

> <Tox>
-3.272

> <CAS>
2050-68-2

$$$$

  CDK

 12 13  0  0  0  0  0  0  0  0999 V2000
    0.0000    0.0000    0.0000 Cl  0  0  0  0  0  0  0  0  0  0  0  0
   -0.3000    1.6800    0.2800 C   0  0  0  0  0  0  0  0  0  0  0  0
   -1.6000    2.2200    0.2000 C   0  0  0  0  0  0  0  0  0  0  0  0
    0.7800    2.5600    0.5800 C   0  0  0  0  0  0  0  0  0  0  0  0
   -1.8200    3.6200    0.4400 C   0  0  0  0  0  0  0  0  0  0  0  0
   -2.7200    1.4200   -0.1000 C   0  0  0  0  0  0  0  0  0  0  0  0
    0.5600    3.9200    0.8000 C   0  0  0  0  0  0  0  0  0  0  0  0
    2.4200    2.0200    0.6800 Cl  0  0  0  0  0  0  0  0  0  0  0  0
   -0.7400    4.4600    0.7400 C   0  0  0  0  0  0  0  0  0  0  0  0
   -3.1000    4.1800    0.3800 C   0  0  0  0  0  0  0  0  0  0  0  0
   -4.0200    1.9800   -0.1600 C   0  0  0  0  0  0  0  0  0  0  0  0
   -4.2000    3.3400    0.0800 C   0  0  0  0  0  0  0  0  0  0  0  0
  1  2  1  0  0  0  0 
  2  3  2  0  0  0  0 
  2  4  1  0  0  0  0 
  3  5  1  0  0  0  0 
  3  6  1  0  0  0  0 
  7  4  2  0  0  0  0 
  4  8  1  0  0  0  0 
  5  9  2  0  0  0  0 
  5 10  1  0  0  0  0 
 11  6  2  0  0  0  0 
  9  7  1  0  0  0  0 
 10 12  2  0  0  0  0 
 12 11  1  0  0  0  0 
M  END
> <Name>
1,2-DICHLORONAPHTHALENE

> <Source>
NIH3DMolFile

> <Tox>
-2.699

> <CAS>
2050-69-3

$$$$

  CDK

 10  9  0  0  0  0  0  0  0  0999 V2000
    3.0532    2.2499    2.7687 C   0  0  0  0  0  0  0  0  0  0  0  0
    1.6909    2.1627    2.0733 C   0  0  0  0  0  0  0  0  0  0  0  0
    4.1978    2.3295    1.7717 C   0  0  0  0  0  0  0  0  0  0  0  0
    1.4237    3.4044    1.2175 C   0  0  0  0  0  0  0  0  0  0  0  0
    1.6148    0.8963    1.2334 C   0  0  0  0  0  0  0  0  0  0  0  0
    5.5508    2.3977    2.4566 C   0  0  0  0  0  0  0  0  0  0  0  0
    0.9438    4.5790    2.0402 C   0  0  0  0  0  0  0  0  0  0  0  0
    6.6692    2.6809    1.4519 C   0  0  0  0  0  0  0  0  0  0  0  0
    8.0272    2.5583    2.1216 C   0  0  0  0  0  0  0  0  0  0  0  0
    6.5002    4.0622    0.8391 C   0  0  0  0  0  0  0  0  0  0  0  0
  1  2  1  0  0  0  0 
  1  3  1  0  0  0  0 
  2  4  1  0  0  0  0 
  2  5  1  0  0  0  0 
  3  6  1  0  0  0  0 
  4  7  1  0  0  0  0 
  6  8  1  0  0  0  0 
  8  9  1  0  0  0  0 
  8 10  1  0  0  0  0 
M  END
> <Name>
2,6-DIMETHYLOCTANE

> <Source>
NIST3DMolFile

> <Tox>
0.470

> <CAS>
2051-30-1

$$$$

  CDK

 13 14  0  0  0  0  0  0  0  0999 V2000
   -0.5562   -0.5192    0.0758 C   0  0  0  0  0  0  0  0  0  0  0  0
   -1.4028    0.5812   -0.0903 C   0  0  0  0  0  0  0  0  0  0  0  0
   -1.1237   -1.7837    0.2615 C   0  0  0  0  0  0  0  0  0  0  0  0
    0.9068   -0.3842    0.0598 C   0  0  0  0  0  0  0  0  0  0  0  0
   -2.7881    0.4239   -0.0697 C   0  0  0  0  0  0  0  0  0  0  0  0
   -0.7810    2.1300   -0.3340 Cl  0  0  0  0  0  0  0  0  0  0  0  0
   -2.5038   -1.9403    0.2871 C   0  0  0  0  0  0  0  0  0  0  0  0
    1.6645   -1.1533   -0.8269 C   0  0  0  0  0  0  0  0  0  0  0  0
    1.5479    0.4903    0.9400 C   0  0  0  0  0  0  0  0  0  0  0  0
   -3.3368   -0.8374    0.1217 C   0  0  0  0  0  0  0  0  0  0  0  0
    3.0501   -1.0424   -0.8341 C   0  0  0  0  0  0  0  0  0  0  0  0
    2.9343    0.5914    0.9318 C   0  0  0  0  0  0  0  0  0  0  0  0
    3.6862   -0.1723    0.0450 C   0  0  0  0  0  0  0  0  0  0  0  0
  1  2  1  0  0  0  0 
  1  3  2  0  0  0  0 
  1  4  1  0  0  0  0 
  2  5  2  0  0  0  0 
  2  6  1  0  0  0  0 
  7  3  1  0  0  0  0 
  4  8  1  0  0  0  0 
  4  9  2  0  0  0  0 
  5 10  1  0  0  0  0 
 10  7  2  0  0  0  0 
  8 11  2  0  0  0  0 
 12  9  1  0  0  0  0 
 11 13  1  0  0  0  0 
 13 12  2  0  0  0  0 
M  END
> <Name>
2-CHLOROBIPHENYL

> <Source>
DougDB3DMolFile

> <Tox>
-2.860

> <CAS>
2051-60-7

$$$$

  CDK

 22 24  0  0  0  0  0  0  0  0999 V2000
   -2.3265   -3.2917   -0.0016 Br  0  0  0  0  0  0  0  0  0  0  0  0
   -2.3791   -1.3777    0.0000 C   0  0  0  0  0  0  0  0  0  0  0  0
   -1.1678   -0.6868    0.0001 C   0  0  0  0  0  0  0  0  0  0  0  0
   -3.5794   -0.6666    0.0001 C   0  0  0  0  0  0  0  0  0  0  0  0
   -0.0127   -1.4268    0.0000 O   0  0  0  0  0  0  0  0  0  0  0  0
   -1.1556    0.7071    0.0001 C   0  0  0  0  0  0  0  0  0  0  0  0
   -5.2533   -1.6088    0.0014 Br  0  0  0  0  0  0  0  0  0  0  0  0
   -3.5672    0.7293    0.0003 C   0  0  0  0  0  0  0  0  0  0  0  0
    1.1554   -0.7073    0.0003 C   0  0  0  0  0  0  0  0  0  0  0  0
    0.0124    1.4268    0.0001 O   0  0  0  0  0  0  0  0  0  0  0  0
   -2.3544    1.4191    0.0004 C   0  0  0  0  0  0  0  0  0  0  0  0
   -5.0636    1.6252   -0.0010 Cl  0  0  0  0  0  0  0  0  0  0  0  0
    1.1677    0.6868    0.0002 C   0  0  0  0  0  0  0  0  0  0  0  0
    2.3544   -1.4192    0.0004 C   0  0  0  0  0  0  0  0  0  0  0  0
   -2.2816    3.3323    0.0000 Br  0  0  0  0  0  0  0  0  0  0  0  0
    2.3790    1.3775    0.0003 C   0  0  0  0  0  0  0  0  0  0  0  0
    2.2821   -3.3323    0.0001 Br  0  0  0  0  0  0  0  0  0  0  0  0
    3.5671   -0.7294    0.0006 C   0  0  0  0  0  0  0  0  0  0  0  0
    2.3264    3.2922   -0.0024 Br  0  0  0  0  0  0  0  0  0  0  0  0
    3.5793    0.6665    0.0005 C   0  0  0  0  0  0  0  0  0  0  0  0
    5.0637   -1.6248   -0.0020 Cl  0  0  0  0  0  0  0  0  0  0  0  0
    5.2538    1.6084    0.0021 Br  0  0  0  0  0  0  0  0  0  0  0  0
  1  2  1  0  0  0  0 
  3  2  1  0  0  0  0 
  2  4  2  0  0  0  0 
  5  3  1  0  0  0  0 
  3  6  2  0  0  0  0 
  7  4  1  0  0  0  0 
  4  8  1  0  0  0  0 
  5  9  1  0  0  0  0 
 10  6  1  0  0  0  0 
  6 11  1  0  0  0  0 
 12  8  1  0  0  0  0 
 11  8  2  0  0  0  0 
 13  9  2  0  0  0  0 
  9 14  1  0  0  0  0 
 10 13  1  0  0  0  0 
 15 11  1  0  0  0  0 
 13 16  1  0  0  0  0 
 17 14  1  0  0  0  0 
 14 18  2  0  0  0  0 
 19 16  1  0  0  0  0 
 16 20  2  0  0  0  0 
 21 18  1  0  0  0  0 
 20 18  1  0  0  0  0 
 22 20  1  0  0  0  0 
M  END
> <Name>
1,2,4,6,7,9-HEXABROMO-3,8-DICHLORODIBENZO-P-DIO*

> <Source>
Chemidplus3DMolFile

> <Tox>
-12.502

> <CAS>
2170-44-7

$$$$

  CDK

 14 14  0  0  0  0  0  0  0  0999 V2000
    2.2511    5.8455    2.0555 C   0  0  0  0  0  0  0  0  0  0  0  0
    1.0538    5.1394    1.4317 C   0  0  0  0  0  0  0  0  0  0  0  0
    3.5631    5.3985    1.4329 C   0  0  0  0  0  0  0  0  0  0  0  0
    0.9596    3.7095    1.8584 C   0  0  0  0  0  0  0  0  0  0  0  0
    4.7541    6.0479    2.1188 C   0  0  0  0  0  0  0  0  0  0  0  0
    1.3491    2.6839    0.9963 C   0  0  0  0  0  0  0  0  0  0  0  0
    0.4745    3.3920    3.1288 C   0  0  0  0  0  0  0  0  0  0  0  0
    6.0885    5.6116    1.5283 C   0  0  0  0  0  0  0  0  0  0  0  0
    1.2484    1.3565    1.3984 C   0  0  0  0  0  0  0  0  0  0  0  0
    0.3797    2.0645    3.5296 C   0  0  0  0  0  0  0  0  0  0  0  0
    6.6031    4.2862    2.0741 C   0  0  0  0  0  0  0  0  0  0  0  0
    0.7634    1.0453    2.6638 C   0  0  0  0  0  0  0  0  0  0  0  0
    6.0121    3.0792    1.3627 C   0  0  0  0  0  0  0  0  0  0  0  0
    6.5341    1.7843    1.9419 C   0  0  0  0  0  0  0  0  0  0  0  0
  1  2  1  0  0  0  0 
  1  3  1  0  0  0  0 
  2  4  1  0  0  0  0 
  3  5  1  0  0  0  0 
  4  6  2  0  0  0  0 
  7  4  1  0  0  0  0 
  5  8  1  0  0  0  0 
  6  9  1  0  0  0  0 
 10  7  2  0  0  0  0 
  8 11  1  0  0  0  0 
  9 12  2  0  0  0  0 
 12 10  1  0  0  0  0 
 11 13  1  0  0  0  0 
 13 14  1  0  0  0  0 
M  END
> <Name>
OCTYLBENZENE

> <Source>
NIST3DMolFile

> <Tox>
-1.947

> <CAS>
2189-60-8

$$$$

  CDK

  8  8  0  0  0  0  0  0  0  0999 V2000
    1.0386    3.3243    2.9734 C   0  0  0  0  0  0  0  0  0  0  0  0
    1.5378    1.9043    3.1846 C   0  0  0  0  0  0  0  0  0  0  0  0
    2.9612    1.8781    3.7415 C   0  0  0  0  0  0  0  0  0  0  0  0
    1.4434    1.0726    1.9054 C   0  0  0  0  0  0  0  0  0  0  0  0
    4.0128    2.2665    2.7031 C   0  0  0  0  0  0  0  0  0  0  0  0
    2.4994    1.4491    0.8791 C   0  0  0  0  0  0  0  0  0  0  0  0
    5.4066    2.1761    3.3001 C   0  0  0  0  0  0  0  0  0  0  0  0
    3.8954    1.3684    1.4731 C   0  0  0  0  0  0  0  0  0  0  0  0
  1  2  1  0  0  0  0 
  2  3  1  0  0  0  0 
  4  2  1  0  0  0  0 
  3  5  1  0  0  0  0 
  6  4  1  0  0  0  0 
  5  7  1  0  0  0  0 
  5  8  1  0  0  0  0 
  8  6  1  0  0  0  0 
M  END
> <Name>
1,3-DIMETHYLCYCLOHEXANE (TRANS)

> <Source>
NIST3DMolFile

> <Tox>
1.246

> <CAS>
2207-03-6

$$$$

  CDK

  8  8  0  0  0  0  0  0  0  0999 V2000
    5.7492    0.8379    1.4521 C   0  0  0  0  0  0  0  0  0  0  0  0
    4.8175    1.9222    1.9680 C   0  0  0  0  0  0  0  0  0  0  0  0
    3.8369    1.3621    3.0037 C   0  0  0  0  0  0  0  0  0  0  0  0
    4.0781    2.5830    0.8004 C   0  0  0  0  0  0  0  0  0  0  0  0
    2.5204    0.9444    2.3738 C   0  0  0  0  0  0  0  0  0  0  0  0
    2.7677    3.2000    1.2536 C   0  0  0  0  0  0  0  0  0  0  0  0
    1.7852    2.1296    1.7389 C   0  0  0  0  0  0  0  0  0  0  0  0
    0.7848    2.7376    2.7083 C   0  0  0  0  0  0  0  0  0  0  0  0
  1  2  1  0  0  0  0 
  2  3  1  0  0  0  0 
  4  2  1  0  0  0  0 
  3  5  1  0  0  0  0 
  6  4  1  0  0  0  0 
  5  7  1  0  0  0  0 
  7  6  1  0  0  0  0 
  7  8  1  0  0  0  0 
M  END
> <Name>
1,4-DIMETHYLCYCLOHEXANE (TRANS)

> <Source>
NIST3DMolFile

> <Tox>
1.356

> <CAS>
2207-04-7

$$$$

  CDK

 20 21  0  0  0  0  0  0  0  0999 V2000
    4.4780   -2.3756    0.0000 C   0  0  0  0  0  0  0  0  0  0  0  0
    3.1574   -2.3604    0.0000 C   0  0  0  0  0  0  0  0  0  0  0  0
    5.2446   -1.3055    0.0000 C   0  0  0  0  0  0  0  0  0  0  0  0
    5.2446   -3.4458    0.0000 C   0  0  0  0  0  0  0  0  0  0  0  0
    3.8556   -3.5445    0.0000 Cl  0  0  0  0  0  0  0  0  0  0  0  0
    2.3756   -1.2751    0.0000 C   0  0  0  0  0  0  0  0  0  0  0  0
    2.3604   -3.4306    0.0000 C   0  0  0  0  0  0  0  0  0  0  0  0
    3.9391   -1.3055    0.0000 Cl  0  0  0  0  0  0  0  0  0  0  0  0
    6.5045   -1.7077    0.0000 C   0  0  0  0  0  0  0  0  0  0  0  0
    4.8499   -0.0304    0.0000 Cl  0  0  0  0  0  0  0  0  0  0  0  0
    6.5045   -3.0435    0.0000 C   0  0  0  0  0  0  0  0  0  0  0  0
    4.8499   -4.7209    0.0000 Cl  0  0  0  0  0  0  0  0  0  0  0  0
    1.1157   -1.6774    0.0000 C   0  0  0  0  0  0  0  0  0  0  0  0
    2.7779   -0.0000    0.0000 Cl  0  0  0  0  0  0  0  0  0  0  0  0
    1.1005   -2.9980    0.0000 C   0  0  0  0  0  0  0  0  0  0  0  0
    2.7551   -4.6905    0.0000 Cl  0  0  0  0  0  0  0  0  0  0  0  0
    7.5898   -0.9108    0.0000 Cl  0  0  0  0  0  0  0  0  0  0  0  0
    7.5898   -3.8405    0.0000 Cl  0  0  0  0  0  0  0  0  0  0  0  0
    0.0152   -0.8956    0.0000 Cl  0  0  0  0  0  0  0  0  0  0  0  0
    0.0000   -3.7646    0.0000 Cl  0  0  0  0  0  0  0  0  0  0  0  0
  1  2  1  0  0  0  0 
  1  3  1  0  0  0  0 
  1  4  1  0  0  0  0 
  1  5  1  0  0  0  0 
  2  6  1  0  0  0  0 
  2  7  1  0  0  0  0 
  2  8  1  0  0  0  0 
  3  9  2  0  0  0  0 
  3 10  1  0  0  0  0 
  4 11  2  0  0  0  0 
  4 12  1  0  0  0  0 
  6 13  2  0  0  0  0 
  6 14  1  0  0  0  0 
  7 15  2  0  0  0  0 
  7 16  1  0  0  0  0 
 11  9  1  0  0  0  0 
  9 17  1  0  0  0  0 
 11 18  1  0  0  0  0 
 13 19  1  0  0  0  0 
 13 15  1  0  0  0  0 
 15 20  1  0  0  0  0 
M  END
> <Name>
DIENOCHLOR

> <Source>
DSSTox2DMolFile

> <Tox>
-5.662

> <CAS>
2227-17-0

$$$$

  CDK

 16 17  0  0  0  0  0  0  0  0999 V2000
    3.9942   -2.3090    0.0000 C   0  0  0  0  0  0  0  0  0  0  0  0
    5.3163   -2.3090    0.0000 C   0  0  0  0  0  0  0  0  0  0  0  0
    3.3239   -3.4542    0.0000 C   0  0  0  0  0  0  0  0  0  0  0  0
    3.3239   -1.1545    0.0000 C   0  0  0  0  0  0  0  0  0  0  0  0
    5.9867   -1.1545    0.0000 C   0  0  0  0  0  0  0  0  0  0  0  0
    5.9867   -3.4542    0.0000 C   0  0  0  0  0  0  0  0  0  0  0  0
    1.9925   -3.4542    0.0000 C   0  0  0  0  0  0  0  0  0  0  0  0
    3.9942   -4.6087    0.0000 Cl  0  0  0  0  0  0  0  0  0  0  0  0
    1.9925   -1.1545    0.0000 C   0  0  0  0  0  0  0  0  0  0  0  0
    7.3181   -1.1545    0.0000 C   0  0  0  0  0  0  0  0  0  0  0  0
    5.3163   -0.0000    0.0000 Cl  0  0  0  0  0  0  0  0  0  0  0  0
    7.3181   -3.4542    0.0000 C   0  0  0  0  0  0  0  0  0  0  0  0
    1.3314   -2.3090    0.0000 C   0  0  0  0  0  0  0  0  0  0  0  0
    7.9792   -2.3090    0.0000 C   0  0  0  0  0  0  0  0  0  0  0  0
    0.0000   -2.3090    0.0000 Cl  0  0  0  0  0  0  0  0  0  0  0  0
    9.3106   -2.3090    0.0000 Cl  0  0  0  0  0  0  0  0  0  0  0  0
  1  2  1  0  0  0  0 
  1  3  2  0  0  0  0 
  1  4  1  0  0  0  0 
  2  5  2  0  0  0  0 
  2  6  1  0  0  0  0 
  3  7  1  0  0  0  0 
  3  8  1  0  0  0  0 
  9  4  2  0  0  0  0 
  5 10  1  0  0  0  0 
  5 11  1  0  0  0  0 
 12  6  2  0  0  0  0 
  7 13  2  0  0  0  0 
 13  9  1  0  0  0  0 
 10 14  2  0  0  0  0 
 14 12  1  0  0  0  0 
 13 15  1  0  0  0  0 
 14 16  1  0  0  0  0 
M  END
> <Name>
2,2',4,4'-TETRACHLOROBIPHENYL

> <Source>
DSSTox2DMolFile

> <Tox>
-4.064

> <CAS>
2437-79-8

$$$$

  CDK

 19 20  0  0  0  0  0  0  0  0999 V2000
    2.2325    0.2574   10.0865 N   0  0  0  0  0  0  0  0  0  0  0  0
    2.1970    1.5218   10.7939 C   0  0  0  0  0  0  0  0  0  0  0  0
    2.2355   -0.9770   10.8461 C   0  0  0  0  0  0  0  0  0  0  0  0
    2.2500    0.2281    8.6764 C   0  0  0  0  0  0  0  0  0  0  0  0
    3.5774    2.1360   10.9019 C   0  0  0  0  0  0  0  0  0  0  0  0
    0.8458   -1.5714   10.9447 C   0  0  0  0  0  0  0  0  0  0  0  0
    1.2002    0.7951    7.9537 C   0  0  0  0  0  0  0  0  0  0  0  0
    3.3174   -0.3678    8.0045 C   0  0  0  0  0  0  0  0  0  0  0  0
    1.2175    0.7659    6.5593 C   0  0  0  0  0  0  0  0  0  0  0  0
    3.3347   -0.3968    6.6100 C   0  0  0  0  0  0  0  0  0  0  0  0
    2.2847    0.1702    5.8944 C   0  0  0  0  0  0  0  0  0  0  0  0
    2.3028    0.1403    4.4894 N   0  0  0  0  0  0  0  0  0  0  0  0
    2.8756    1.1636    4.0464 N   0  0  0  0  0  0  0  0  0  0  0  0
    2.8941    1.1341    2.6485 C   0  0  0  0  0  0  0  0  0  0  0  0
    1.8444    1.7007    1.9252 C   0  0  0  0  0  0  0  0  0  0  0  0
    3.9616    0.5378    1.9771 C   0  0  0  0  0  0  0  0  0  0  0  0
    1.8622    1.6708    0.5308 C   0  0  0  0  0  0  0  0  0  0  0  0
    3.9793    0.5080    0.5826 C   0  0  0  0  0  0  0  0  0  0  0  0
    2.9295    1.0745   -0.1405 C   0  0  0  0  0  0  0  0  0  0  0  0
  1  2  1  0  0  0  0 
  1  3  1  0  0  0  0 
  1  4  1  0  0  0  0 
  2  5  1  0  0  0  0 
  3  6  1  0  0  0  0 
  4  7  2  0  0  0  0 
  4  8  1  0  0  0  0 
  7  9  1  0  0  0  0 
  8 10  2  0  0  0  0 
  9 11  2  0  0  0  0 
 10 11  1  0  0  0  0 
 12 11  1  0  0  0  0 
 12 13  2  0  0  0  0 
 13 14  1  0  0  0  0 
 14 15  2  0  0  0  0 
 14 16  1  0  0  0  0 
 15 17  1  0  0  0  0 
 16 18  2  0  0  0  0 
 17 19  2  0  0  0  0 
 18 19  1  0  0  0  0 
M  END
> <Name>
C.I. SOLVENT YELLOW 56

> <Source>
Chemidplus3DMolFile

> <Tox>
-7.073

> <CAS>
2481-94-9

$$$$

  CDK

 17 18  0  0  0  0  0  0  0  0999 V2000
    1.2607    0.8010   10.6800 O   0  0  0  0  0  0  0  0  0  0  0  0
    2.2305    0.2599   10.0959 N   0  0  0  0  0  0  0  0  0  0  0  0
    3.1843   -0.2558   10.7276 O   0  0  0  0  0  0  0  0  0  0  0  0
    2.2491    0.2298    8.6764 C   0  0  0  0  0  0  0  0  0  0  0  0
    1.1995    0.7963    7.9530 C   0  0  0  0  0  0  0  0  0  0  0  0
    3.3167   -0.3666    8.0052 C   0  0  0  0  0  0  0  0  0  0  0  0
    1.2173    0.7663    6.5586 C   0  0  0  0  0  0  0  0  0  0  0  0
    3.3344   -0.3964    6.6107 C   0  0  0  0  0  0  0  0  0  0  0  0
    2.2847    0.1702    5.8944 C   0  0  0  0  0  0  0  0  0  0  0  0
    2.3028    0.1403    4.4894 N   0  0  0  0  0  0  0  0  0  0  0  0
    2.8758    1.1634    4.0464 N   0  0  0  0  0  0  0  0  0  0  0  0
    2.8943    1.1340    2.6485 C   0  0  0  0  0  0  0  0  0  0  0  0
    1.8448    1.7008    1.9252 C   0  0  0  0  0  0  0  0  0  0  0  0
    3.9617    0.5375    1.9771 C   0  0  0  0  0  0  0  0  0  0  0  0
    1.8625    1.6709    0.5308 C   0  0  0  0  0  0  0  0  0  0  0  0
    3.9794    0.5077    0.5827 C   0  0  0  0  0  0  0  0  0  0  0  0
    2.9297    1.0744   -0.1405 C   0  0  0  0  0  0  0  0  0  0  0  0
  1  2  1  0  0  0  0 
  3  2  2  0  0  0  0 
  2  4  1  0  0  0  0 
  4  5  2  0  0  0  0 
  4  6  1  0  0  0  0 
  7  5  1  0  0  0  0 
  8  6  2  0  0  0  0 
  9  7  2  0  0  0  0 
  9  8  1  0  0  0  0 
 10  9  1  0  0  0  0 
 10 11  2  0  0  0  0 
 11 12  1  0  0  0  0 
 12 13  2  0  0  0  0 
 12 14  1  0  0  0  0 
 13 15  1  0  0  0  0 
 14 16  2  0  0  0  0 
 15 17  2  0  0  0  0 
 16 17  1  0  0  0  0 
M  CHG  1   1  -1
M  CHG  1   2   1
M  END
> <Name>
(4-NITROPHENYL)PHENYLDIAZENE

> <Source>
Chemidplus3DMolFile

> <Tox>
-5.932

> <CAS>
2491-52-3

$$$$

  CDK

 13 12  0  0  0  0  0  0  0  0999 V2000
   -2.7731    0.4133    0.0034 O   0  0  0  0  0  0  0  0  0  0  0  0
   -1.6443   -0.4495    0.0116 C   0  0  0  0  0  0  0  0  0  0  0  0
   -3.9917   -0.2012   -0.0139 C   0  0  0  0  0  0  0  0  0  0  0  0
   -0.3787    0.3961    0.0308 C   0  0  0  0  0  0  0  0  0  0  0  0
   -4.2004   -1.4040   -0.0229 O   0  0  0  0  0  0  0  0  0  0  0  0
   -5.0326    0.8475   -0.0222 C   0  0  0  0  0  0  0  0  0  0  0  0
    0.8793   -0.4712    0.0244 C   0  0  0  0  0  0  0  0  0  0  0  0
   -6.3246    0.5075   -0.0397 C   0  0  0  0  0  0  0  0  0  0  0  0
    2.1445    0.3874    0.0856 C   0  0  0  0  0  0  0  0  0  0  0  0
    3.4383   -0.4316    0.0586 C   0  0  0  0  0  0  0  0  0  0  0  0
    4.7034    0.4290    0.0455 C   0  0  0  0  0  0  0  0  0  0  0  0
    5.9604   -0.4368   -0.0546 C   0  0  0  0  0  0  0  0  0  0  0  0
    7.2197    0.4134   -0.1066 C   0  0  0  0  0  0  0  0  0  0  0  0
  1  2  1  0  0  0  0 
  1  3  1  0  0  0  0 
  4  2  1  0  0  0  0 
  5  3  2  0  0  0  0 
  3  6  1  0  0  0  0 
  7  4  1  0  0  0  0 
  6  8  2  0  0  0  0 
  9  7  1  0  0  0  0 
  9 10  1  0  0  0  0 
 10 11  1  0  0  0  0 
 11 12  1  0  0  0  0 
 12 13  1  0  0  0  0 
M  END
> <Name>
OCTYL ACRYLATE

> <Source>
Chemidplus3DMolFile

> <Tox>
-0.991

> <CAS>
2499-59-4

$$$$

  CDK

  9  8  0  0  0  0  0  0  0  0999 V2000
    1.7427    1.4938    0.0000 C   0  0  0  0  0  0  0  0  0  0  0  0
    2.5892    0.9959    0.0000 C   0  0  0  0  0  0  0  0  0  0  0  0
    0.8963    0.9959    0.0000 C   0  0  0  0  0  0  0  0  0  0  0  0
    3.4855    1.4938    0.0000 C   0  0  0  0  0  0  0  0  0  0  0  0
    0.8963    0.0000    0.0000 Cl  0  0  0  0  0  0  0  0  0  0  0  0
    0.0000    1.4938    0.0000 O   0  0  0  0  0  0  0  0  0  0  0  0
    4.3320    0.9959    0.0000 C   0  0  0  0  0  0  0  0  0  0  0  0
    5.1784    1.4938    0.0000 C   0  0  0  0  0  0  0  0  0  0  0  0
    6.0747    0.9959    0.0000 C   0  0  0  0  0  0  0  0  0  0  0  0
  1  2  1  0  0  0  0 
  1  3  1  0  0  0  0 
  2  4  1  0  0  0  0 
  3  5  1  0  0  0  0 
  3  6  2  0  0  0  0 
  4  7  1  0  0  0  0 
  7  8  1  0  0  0  0 
  8  9  1  0  0  0  0 
M  END
> <Name>
HEPTANOYL CHLORIDE

> <Source>
NIST2DMolFile

> <Tox>
-0.351

> <CAS>
2528-61-2

$$$$

  CDK

  7  7  0  0  0  0  0  0  0  0999 V2000
    2.0673    1.8865    2.2220 C   0  0  0  0  0  0  0  0  0  0  0  0
    0.7342    1.6565    1.5418 C   0  0  0  0  0  0  0  0  0  0  0  0
    2.6777    3.2441    1.8699 C   0  0  0  0  0  0  0  0  0  0  0  0
    3.1213    0.8513    1.8150 C   0  0  0  0  0  0  0  0  0  0  0  0
    4.1925    3.0663    2.0064 C   0  0  0  0  0  0  0  0  0  0  0  0
    4.4652    1.5747    1.7704 C   0  0  0  0  0  0  0  0  0  0  0  0
    4.9613    3.9531    1.0488 C   0  0  0  0  0  0  0  0  0  0  0  0
  1  2  1  0  0  0  0 
  1  3  1  0  0  0  0 
  4  1  1  0  0  0  0 
  3  5  1  0  0  0  0 
  6  4  1  0  0  0  0 
  5  6  1  0  0  0  0 
  5  7  1  0  0  0  0 
M  END
> <Name>
1,3-DIMETHYLCYCLOPENTANE (CIS)

> <Source>
NIST3DMolFile

> <Tox>
1.821

> <CAS>
2532-58-3

$$$$

  CDK

 13 13  0  0  0  0  0  0  0  0999 V2000
    0.1333    1.6738   -0.1243 C   0  0  0  0  0  0  0  0  0  0  0  0
   -1.1503    1.0874   -0.1508 C   0  0  0  0  0  0  0  0  0  0  0  0
    1.2718    0.8542   -0.0377 C   0  0  0  0  0  0  0  0  0  0  0  0
    0.3615    3.0152   -0.1732 O   0  0  0  0  0  0  0  0  0  0  0  0
   -1.2845   -0.3051   -0.1066 C   0  0  0  0  0  0  0  0  0  0  0  0
   -2.2587    1.9065   -0.3380 O   0  0  0  0  0  0  0  0  0  0  0  0
    1.1221   -0.5318    0.0164 C   0  0  0  0  0  0  0  0  0  0  0  0
    2.8088    1.5211    0.0000 Cl  0  0  0  0  0  0  0  0  0  0  0  0
   -0.1474   -1.1101   -0.0195 C   0  0  0  0  0  0  0  0  0  0  0  0
   -2.7968   -1.0250   -0.1580 Cl  0  0  0  0  0  0  0  0  0  0  0  0
   -3.0088    2.1234    0.8405 C   0  0  0  0  0  0  0  0  0  0  0  0
    2.4770   -1.5095    0.1214 Cl  0  0  0  0  0  0  0  0  0  0  0  0
   -0.3070   -2.7779    0.0388 Cl  0  0  0  0  0  0  0  0  0  0  0  0
  1  2  1  0  0  0  0 
  1  3  2  0  0  0  0 
  1  4  1  0  0  0  0 
  2  5  2  0  0  0  0 
  2  6  1  0  0  0  0 
  7  3  1  0  0  0  0 
  3  8  1  0  0  0  0 
  5  9  1  0  0  0  0 
  5 10  1  0  0  0  0 
  6 11  1  0  0  0  0 
  9  7  2  0  0  0  0 
  7 12  1  0  0  0  0 
  9 13  1  0  0  0  0 
M  END
> <Name>
TETRACHLOROGUAIACOL

> <Source>
DougDB3DMolFile

> <Tox>
-4.076

> <CAS>
2539-17-5

$$$$

  CDK

 15 15  0  0  0  0  0  0  0  0999 V2000
    3.5075    3.4574    0.0000 O   0  0  0  0  0  0  0  0  0  0  0  0
    4.4595    3.4574    0.0000 C   0  0  0  0  0  0  0  0  0  0  0  0
    3.0064    2.6056    0.0000 C   0  0  0  0  0  0  0  0  0  0  0  0
    5.0107    4.3092    0.0000 N   0  0  0  0  0  0  0  0  0  0  0  0
    4.9606    2.6056    0.0000 O   0  0  0  0  0  0  0  0  0  0  0  0
    2.0043    2.6056    0.0000 C   0  0  0  0  0  0  0  0  0  0  0  0
    3.5075    1.7036    0.0000 C   0  0  0  0  0  0  0  0  0  0  0  0
    6.0128    4.3092    0.0000 C   0  0  0  0  0  0  0  0  0  0  0  0
    1.5032    1.7036    0.0000 C   0  0  0  0  0  0  0  0  0  0  0  0
    3.0064    0.8518    0.0000 C   0  0  0  0  0  0  0  0  0  0  0  0
    0.5011    1.7036    0.0000 C   0  0  0  0  0  0  0  0  0  0  0  0
    2.0043    0.8518    0.0000 C   0  0  0  0  0  0  0  0  0  0  0  0
    3.5075    0.0000    0.0000 C   0  0  0  0  0  0  0  0  0  0  0  0
    0.0000    2.6056    0.0000 C   0  0  0  0  0  0  0  0  0  0  0  0
    0.0000    0.8518    0.0000 C   0  0  0  0  0  0  0  0  0  0  0  0
  1  2  1  0  0  0  0 
  1  3  1  0  0  0  0 
  2  4  1  0  0  0  0 
  2  5  2  0  0  0  0 
  3  6  2  0  0  0  0 
  7  3  1  0  0  0  0 
  4  8  1  0  0  0  0 
  6  9  1  0  0  0  0 
 10  7  2  0  0  0  0 
  9 11  1  0  0  0  0 
  9 12  2  0  0  0  0 
 12 10  1  0  0  0  0 
 10 13  1  0  0  0  0 
 11 14  1  0  0  0  0 
 11 15  1  0  0  0  0 
M  END
> <Name>
3-I-PR-5-MEPHENYL-N-ME CARBAMATE

> <Source>
NIST2DMolFile

> <Tox>
-4.523

> <CAS>
2631-37-0

$$$$

  CDK

 12 12  0  0  0  0  0  0  0  0999 V2000
    3.4567    0.0000    0.0000 C   0  0  0  0  0  0  0  0  0  0  0  0
    4.1647    1.2078    0.0000 O   0  0  0  0  0  0  0  0  0  0  0  0
    3.4567    2.4156    0.0000 C   0  0  0  0  0  0  0  0  0  0  0  0
    2.0824    2.4156    0.0000 C   0  0  0  0  0  0  0  0  0  0  0  0
    4.1647    3.6233    0.0000 C   0  0  0  0  0  0  0  0  0  0  0  0
    1.3744    3.6233    0.0000 C   0  0  0  0  0  0  0  0  0  0  0  0
    3.4567    4.8311    0.0000 C   0  0  0  0  0  0  0  0  0  0  0  0
    5.5808    3.6233    0.0000 O   0  0  0  0  0  0  0  0  0  0  0  0
    0.0000    3.6233    0.0000 Cl  0  0  0  0  0  0  0  0  0  0  0  0
    2.0824    4.8311    0.0000 C   0  0  0  0  0  0  0  0  0  0  0  0
    4.1647    6.0389    0.0000 Cl  0  0  0  0  0  0  0  0  0  0  0  0
    1.3744    6.0389    0.0000 Cl  0  0  0  0  0  0  0  0  0  0  0  0
  1  2  1  0  0  0  0 
  2  3  1  0  0  0  0 
  3  4  2  0  0  0  0 
  3  5  1  0  0  0  0 
  4  6  1  0  0  0  0 
  7  5  2  0  0  0  0 
  5  8  1  0  0  0  0 
  6  9  1  0  0  0  0 
  6 10  2  0  0  0  0 
 10  7  1  0  0  0  0 
  7 11  1  0  0  0  0 
 10 12  1  0  0  0  0 
M  END
> <Name>
4,5,6-TRICHLOROGUAIACOL

> <Source>
IndexNet2DMolFile

> <Tox>
-2.728

> <CAS>
2668-24-8

$$$$

  CDK

  9  9  0  0  0  0  0  0  0  0999 V2000
    1.1525   -1.3279    0.0000 C   0  0  0  0  0  0  0  0  0  0  0  0
    0.0000   -2.0018    0.0000 C   0  0  0  0  0  0  0  0  0  0  0  0
    2.3049   -2.0018    0.0000 C   0  0  0  0  0  0  0  0  0  0  0  0
    1.1525   -0.0000    0.0000 N   0  0  0  0  0  0  0  0  0  0  0  0
    0.0000   -3.3297    0.0000 C   0  0  0  0  0  0  0  0  0  0  0  0
    2.3049   -3.3297    0.0000 C   0  0  0  0  0  0  0  0  0  0  0  0
    3.4574   -1.3279    0.0000 N   0  0  0  0  0  0  0  0  0  0  0  0
    1.1525   -3.9877    0.0000 C   0  0  0  0  0  0  0  0  0  0  0  0
    3.4574   -3.9877    0.0000 C   0  0  0  0  0  0  0  0  0  0  0  0
  1  2  2  0  0  0  0 
  1  3  1  0  0  0  0 
  1  4  1  0  0  0  0 
  2  5  1  0  0  0  0 
  6  3  2  0  0  0  0 
  3  7  1  0  0  0  0 
  5  8  2  0  0  0  0 
  8  6  1  0  0  0  0 
  6  9  1  0  0  0  0 
M  END
> <Name>
2,3-DIAMINOTOLUENE

> <Source>
DSSTox2DMolFile

> <Tox>
-3.257

> <CAS>
2687-25-4

$$$$

  CDK

 20 21  0  0  0  0  0  0  0  0999 V2000
    4.6105   -0.0000    0.0000 O   0  0  0  0  0  0  0  0  0  0  0  0
    3.4579   -0.6586    0.0000 C   0  0  0  0  0  0  0  0  0  0  0  0
    3.4579   -1.9886    0.0000 C   0  0  0  0  0  0  0  0  0  0  0  0
    2.3052   -0.0000    0.0000 C   0  0  0  0  0  0  0  0  0  0  0  0
    2.3052   -2.6599    0.0000 C   0  0  0  0  0  0  0  0  0  0  0  0
    4.6105   -2.6599    0.0000 N   0  0  0  0  0  0  0  0  0  0  0  0
    1.1526   -0.6586    0.0000 C   0  0  0  0  0  0  0  0  0  0  0  0
    1.1526   -1.9886    0.0000 C   0  0  0  0  0  0  0  0  0  0  0  0
    5.7631   -1.9886    0.0000 N   0  0  0  0  0  0  0  0  0  0  0  0
    0.0000   -2.6599    0.0000 C   0  0  0  0  0  0  0  0  0  0  0  0
    6.9031   -2.6599    0.0000 C   0  0  0  0  0  0  0  0  0  0  0  0
    8.0557   -1.9886    0.0000 C   0  0  0  0  0  0  0  0  0  0  0  0
    6.9031   -3.9898    0.0000 C   0  0  0  0  0  0  0  0  0  0  0  0
    9.2083   -2.6599    0.0000 C   0  0  0  0  0  0  0  0  0  0  0  0
    8.0557   -4.6485    0.0000 C   0  0  0  0  0  0  0  0  0  0  0  0
    9.2083   -3.9898    0.0000 C   0  0  0  0  0  0  0  0  0  0  0  0
   10.3609   -4.6485    0.0000 N   0  0  0  0  0  0  0  0  0  0  0  0
   11.5136   -3.9898    0.0000 C   0  0  0  0  0  0  0  0  0  0  0  0
   11.5136   -2.6599    0.0000 O   0  0  0  0  0  0  0  0  0  0  0  0
   12.6662   -4.6485    0.0000 C   0  0  0  0  0  0  0  0  0  0  0  0
  1  2  1  0  0  0  0 
  2  3  2  0  0  0  0 
  2  4  1  0  0  0  0 
  3  5  1  0  0  0  0 
  3  6  1  0  0  0  0 
  7  4  2  0  0  0  0 
  5  8  2  0  0  0  0 
  6  9  2  0  0  0  0 
  8  7  1  0  0  0  0 
  8 10  1  0  0  0  0 
  9 11  1  0  0  0  0 
 11 12  2  0  0  0  0 
 11 13  1  0  0  0  0 
 12 14  1  0  0  0  0 
 15 13  2  0  0  0  0 
 14 16  2  0  0  0  0 
 16 15  1  0  0  0  0 
 16 17  1  0  0  0  0 
 17 18  1  0  0  0  0 
 18 19  2  0  0  0  0 
 18 20  1  0  0  0  0 
M  END
> <Name>
4'-((6-HYDROXY-M-TOLYL)AZO)ACETANILIDE

> <Source>
DSSTox2DMolFile

> <Tox>
-10.301

> <CAS>
2832-40-8

$$$$

  CDK

 17 16  0  0  0  0  0  0  0  0999 V2000
    0.0000    0.0000    0.0000 C   0  0  0  0  0  0  0  0  0  0  0  0
    1.5200    0.0000    0.0000 C   0  0  0  0  0  0  0  0  0  0  0  0
    2.1200    0.7000    1.2400 C   0  0  0  0  0  0  0  0  0  0  0  0
    3.6400    0.7000    1.2400 C   0  0  0  0  0  0  0  0  0  0  0  0
    4.2400    1.3800    2.4600 C   0  0  0  0  0  0  0  0  0  0  0  0
    5.7600    1.4000    2.4600 C   0  0  0  0  0  0  0  0  0  0  0  0
    6.3600    2.0800    3.6800 C   0  0  0  0  0  0  0  0  0  0  0  0
    7.8800    2.0800    3.6800 C   0  0  0  0  0  0  0  0  0  0  0  0
    8.4600    2.7800    4.9200 C   0  0  0  0  0  0  0  0  0  0  0  0
   10.0000    2.7800    4.9200 C   0  0  0  0  0  0  0  0  0  0  0  0
   10.5800    3.4800    6.1400 C   0  0  0  0  0  0  0  0  0  0  0  0
   12.1200    3.4800    6.1400 C   0  0  0  0  0  0  0  0  0  0  0  0
   12.7000    4.1800    7.3600 C   0  0  0  0  0  0  0  0  0  0  0  0
   14.2400    4.1800    7.3600 C   0  0  0  0  0  0  0  0  0  0  0  0
   14.8200    4.8600    8.6000 C   0  0  0  0  0  0  0  0  0  0  0  0
   16.3600    4.8600    8.6000 C   0  0  0  0  0  0  0  0  0  0  0  0
   17.0000    5.7000   10.0600 S   0  0  0  0  0  0  0  0  0  0  0  0
  1  2  1  0  0  0  0 
  2  3  1  0  0  0  0 
  3  4  1  0  0  0  0 
  4  5  1  0  0  0  0 
  5  6  1  0  0  0  0 
  6  7  1  0  0  0  0 
  7  8  1  0  0  0  0 
  8  9  1  0  0  0  0 
  9 10  1  0  0  0  0 
 10 11  1  0  0  0  0 
 11 12  1  0  0  0  0 
 12 13  1  0  0  0  0 
 13 14  1  0  0  0  0 
 14 15  1  0  0  0  0 
 15 16  1  0  0  0  0 
 16 17  1  0  0  0  0 
M  END
> <Name>
1-HEXADECANETHIOL

> <Source>
NIH3DMolFile

> <Tox>
-4.987

> <CAS>
2917-26-2

$$$$

  CDK

 18 18  0  0  0  0  0  0  0  0999 V2000
    6.4226   -4.6073    0.0000 S   0  0  0  0  0  0  0  0  0  0  0  0
    5.7591   -3.4555    0.0000 P   0  0  0  0  0  0  0  0  0  0  0  0
    4.6073   -4.1189    0.0000 O   0  0  0  0  0  0  0  0  0  0  0  0
    5.0957   -2.3036    0.0000 O   0  0  0  0  0  0  0  0  0  0  0  0
    6.9109   -2.7920    0.0000 O   0  0  0  0  0  0  0  0  0  0  0  0
    3.4555   -3.4555    0.0000 C   0  0  0  0  0  0  0  0  0  0  0  0
    5.7591   -1.1518    0.0000 C   0  0  0  0  0  0  0  0  0  0  0  0
    8.0627   -3.4555    0.0000 C   0  0  0  0  0  0  0  0  0  0  0  0
    2.3036   -4.1189    0.0000 N   0  0  0  0  0  0  0  0  0  0  0  0
    3.4555   -2.1286    0.0000 C   0  0  0  0  0  0  0  0  0  0  0  0
    5.0957   -0.0000    0.0000 C   0  0  0  0  0  0  0  0  0  0  0  0
    9.2146   -2.7920    0.0000 C   0  0  0  0  0  0  0  0  0  0  0  0
    1.1518   -3.4555    0.0000 C   0  0  0  0  0  0  0  0  0  0  0  0
    2.3036   -1.4559    0.0000 C   0  0  0  0  0  0  0  0  0  0  0  0
    4.6073   -1.4559    0.0000 Cl  0  0  0  0  0  0  0  0  0  0  0  0
    1.1518   -2.1286    0.0000 C   0  0  0  0  0  0  0  0  0  0  0  0
    0.0000   -4.1189    0.0000 Cl  0  0  0  0  0  0  0  0  0  0  0  0
    0.0000   -1.4559    0.0000 Cl  0  0  0  0  0  0  0  0  0  0  0  0
  1  2  2  0  0  0  0 
  2  3  1  0  0  0  0 
  2  4  1  0  0  0  0 
  2  5  1  0  0  0  0 
  3  6  1  0  0  0  0 
  4  7  1  0  0  0  0 
  5  8  1  0  0  0  0 
  6  9  2  0  0  0  0 
  6 10  1  0  0  0  0 
  7 11  1  0  0  0  0 
  8 12  1  0  0  0  0 
  9 13  1  0  0  0  0 
 14 10  2  0  0  0  0 
 10 15  1  0  0  0  0 
 13 16  2  0  0  0  0 
 13 17  1  0  0  0  0 
 16 14  1  0  0  0  0 
 16 18  1  0  0  0  0 
M  END
> <Name>
CHLORPYRIFOS

> <Source>
DSSTox2DMolFile

> <Tox>
-4.693

> <CAS>
2921-88-2

$$$$

  CDK

  9 10  0  0  0  0  0  0  0  0999 V2000
    3.4242   -0.6759    0.0000 C   0  0  0  0  0  0  0  0  0  0  0  0
    4.4760   -1.1861    0.0000 C   0  0  0  0  0  0  0  0  0  0  0  0
    2.0679   -1.0161    0.0000 C   0  0  0  0  0  0  0  0  0  0  0  0
    2.7483   -0.0000    0.0000 C   0  0  0  0  0  0  0  0  0  0  0  0
    4.0866   -2.5424    0.0000 C   0  0  0  0  0  0  0  0  0  0  0  0
    1.6427   -2.3544    0.0000 C   0  0  0  0  0  0  0  0  0  0  0  0
    2.9676   -2.0500    0.0000 C   0  0  0  0  0  0  0  0  0  0  0  0
    1.2533   -3.3212    0.0000 C   0  0  0  0  0  0  0  0  0  0  0  0
    0.0000   -3.0840    0.0000 C   0  0  0  0  0  0  0  0  0  0  0  0
  1  2  1  0  0  0  0 
  1  3  1  0  0  0  0 
  1  4  1  0  0  0  0 
  2  5  2  0  0  0  0 
  6  3  1  0  0  0  0 
  7  4  1  0  0  0  0 
  5  7  1  0  0  0  0 
  7  6  1  0  0  0  0 
  6  8  1  0  0  0  0 
  8  9  2  0  0  0  0 
M  END
> <Name>
Vinylnorbornene

> <Source>
DSSTox2DMolFile

> <Tox>
0.992

> <CAS>
3048-64-4

$$$$

  CDK

 14 14  0  0  0  0  0  0  0  0999 V2000
    4.2722    0.3206    0.1486 N   0  0  0  0  0  0  0  0  0  0  0  0
    2.8587    0.6748   -0.0113 C   0  0  0  0  0  0  0  0  0  0  0  0
    5.2664    1.3051   -0.3164 C   0  0  0  0  0  0  0  0  0  0  0  0
    4.5398   -1.0199   -0.4974 O   0  0  0  0  0  0  0  0  0  0  0  0
    2.5412    1.8078   -0.3457 O   0  0  0  0  0  0  0  0  0  0  0  0
    1.9192   -0.3108    0.3784 N   0  0  0  0  0  0  0  0  0  0  0  0
    5.1905   -1.8662    0.4055 C   0  0  0  0  0  0  0  0  0  0  0  0
    0.4945   -0.1876    0.2298 C   0  0  0  0  0  0  0  0  0  0  0  0
   -0.2256   -1.3318   -0.1547 C   0  0  0  0  0  0  0  0  0  0  0  0
   -0.1754    1.0073    0.5274 C   0  0  0  0  0  0  0  0  0  0  0  0
   -1.6112   -1.2780   -0.2460 C   0  0  0  0  0  0  0  0  0  0  0  0
   -1.5631    1.0582    0.4283 C   0  0  0  0  0  0  0  0  0  0  0  0
   -2.2381   -0.0828    0.0464 C   0  0  0  0  0  0  0  0  0  0  0  0
   -4.0995   -0.0106   -0.0803 Br  0  0  0  0  0  0  0  0  0  0  0  0
  1  2  1  0  0  0  0 
  1  3  1  0  0  0  0 
  1  4  1  0  0  0  0 
  2  5  2  0  0  0  0 
  2  6  1  0  0  0  0 
  4  7  1  0  0  0  0 
  6  8  1  0  0  0  0 
  8  9  1  0  0  0  0 
  8 10  2  0  0  0  0 
  9 11  2  0  0  0  0 
 12 10  1  0  0  0  0 
 11 13  1  0  0  0  0 
 13 12  2  0  0  0  0 
 13 14  1  0  0  0  0 
M  END
> <Name>
METOBROMURON

> <Source>
DougDB3DMolFile

> <Tox>
-5.523

> <CAS>
3060-89-7

$$$$

  CDK

  9  9  0  0  0  0  0  0  0  0999 V2000
    2.3037   -2.6607    0.0000 N   0  0  0  0  0  0  0  0  0  0  0  0
    1.1518   -1.9984    0.0000 C   0  0  0  0  0  0  0  0  0  0  0  0
    3.4555   -1.9984    0.0000 C   0  0  0  0  0  0  0  0  0  0  0  0
    0.0000   -1.3304    0.0000 O   0  0  0  0  0  0  0  0  0  0  0  0
    3.4555   -0.6681    0.0000 C   0  0  0  0  0  0  0  0  0  0  0  0
    4.6073   -2.6607    0.0000 C   0  0  0  0  0  0  0  0  0  0  0  0
    4.6073   -0.0000    0.0000 C   0  0  0  0  0  0  0  0  0  0  0  0
    5.7591   -1.9984    0.0000 C   0  0  0  0  0  0  0  0  0  0  0  0
    5.7591   -0.6681    0.0000 C   0  0  0  0  0  0  0  0  0  0  0  0
  1  2  2  0  0  0  0 
  1  3  1  0  0  0  0 
  2  4  2  0  0  0  0 
  3  5  1  0  0  0  0 
  3  6  1  0  0  0  0 
  5  7  1  0  0  0  0 
  8  6  1  0  0  0  0 
  7  9  1  0  0  0  0 
  9  8  1  0  0  0  0 
M  END
> <Name>
ISOCYANATOCYCLOHEXANE

> <Source>
DSSTox2DMolFile

> <Tox>
0.009

> <CAS>
3173-53-3

$$$$

  CDK

 16 17  0  0  0  0  0  0  0  0999 V2000
    5.5921   -1.0359    0.6630 O   0  0  0  0  0  0  0  0  0  0  0  0
    4.9732   -1.5043   -0.2213 C   0  0  0  0  0  0  0  0  0  0  0  0
    4.3559   -1.9703   -1.1089 N   0  0  0  0  0  0  0  0  0  0  0  0
    3.4578   -2.9587   -0.6768 C   0  0  0  0  0  0  0  0  0  0  0  0
    2.1420   -2.6424   -0.3014 C   0  0  0  0  0  0  0  0  0  0  0  0
    3.9138   -4.2764   -0.6316 C   0  0  0  0  0  0  0  0  0  0  0  0
    1.2765   -3.6774    0.1261 C   0  0  0  0  0  0  0  0  0  0  0  0
    1.6661   -1.3217   -0.3409 C   0  0  0  0  0  0  0  0  0  0  0  0
    3.0627   -5.2942   -0.2113 C   0  0  0  0  0  0  0  0  0  0  0  0
   -0.0394   -3.3612    0.5013 C   0  0  0  0  0  0  0  0  0  0  0  0
    1.7524   -4.9981    0.1655 C   0  0  0  0  0  0  0  0  0  0  0  0
    0.3557   -1.0256    0.0354 C   0  0  0  0  0  0  0  0  0  0  0  0
   -0.9381   -4.3490    0.9331 N   0  0  0  0  0  0  0  0  0  0  0  0
   -0.4954   -2.0434    0.4557 C   0  0  0  0  0  0  0  0  0  0  0  0
   -0.8974   -4.5164    2.0977 C   0  0  0  0  0  0  0  0  0  0  0  0
   -0.8596   -4.6866    3.2614 O   0  0  0  0  0  0  0  0  0  0  0  0
  1  2  2  0  0  0  0 
  3  2  2  0  0  0  0 
  3  4  1  0  0  0  0 
  5  4  1  0  0  0  0 
  4  6  2  0  0  0  0 
  5  7  2  0  0  0  0 
  5  8  1  0  0  0  0 
  6  9  1  0  0  0  0 
  7 10  1  0  0  0  0 
  7 11  1  0  0  0  0 
  8 12  2  0  0  0  0 
 11  9  2  0  0  0  0 
 13 10  1  0  0  0  0 
 10 14  2  0  0  0  0 
 14 12  1  0  0  0  0 
 13 15  2  0  0  0  0 
 16 15  2  0  0  0  0 
M  END
> <Name>
1,5-Naphthylene di-isocyanate

> <Source>
Chemidplus3DMolFile

> <Tox>
-4.471

> <CAS>
3173-72-6

$$$$

  CDK

 26 29  0  0  0  0  0  0  0  0999 V2000
    1.6599    1.5092    0.0844 S   0  0  0  0  0  0  0  0  0  0  0  0
    0.6662    0.0904    0.0340 C   0  0  0  0  0  0  0  0  0  0  0  0
    3.1375    0.5318    0.1593 C   0  0  0  0  0  0  0  0  0  0  0  0
   -0.6662    0.0904   -0.0341 C   0  0  0  0  0  0  0  0  0  0  0  0
    1.4670   -1.1627    0.0750 C   0  0  0  0  0  0  0  0  0  0  0  0
    2.8978   -0.8409    0.1474 C   0  0  0  0  0  0  0  0  0  0  0  0
    4.4387    1.0097    0.2256 C   0  0  0  0  0  0  0  0  0  0  0  0
   -1.6599    1.5092   -0.0844 S   0  0  0  0  0  0  0  0  0  0  0  0
   -1.4670   -1.1627   -0.0749 C   0  0  0  0  0  0  0  0  0  0  0  0
    1.0228   -2.2958    0.0529 O   0  0  0  0  0  0  0  0  0  0  0  0
    3.9287   -1.7675    0.2006 C   0  0  0  0  0  0  0  0  0  0  0  0
    5.4910    0.0908    0.2798 C   0  0  0  0  0  0  0  0  0  0  0  0
   -3.1376    0.5318   -0.1593 C   0  0  0  0  0  0  0  0  0  0  0  0
   -1.0228   -2.2957   -0.0529 O   0  0  0  0  0  0  0  0  0  0  0  0
   -2.8978   -0.8409   -0.1474 C   0  0  0  0  0  0  0  0  0  0  0  0
    5.2374   -1.2886    0.2675 C   0  0  0  0  0  0  0  0  0  0  0  0
    6.7761    0.5389    0.3453 O   0  0  0  0  0  0  0  0  0  0  0  0
   -4.4386    1.0097   -0.2256 C   0  0  0  0  0  0  0  0  0  0  0  0
   -3.9287   -1.7674   -0.2006 C   0  0  0  0  0  0  0  0  0  0  0  0
    7.0581    1.7908   -0.2769 C   0  0  0  0  0  0  0  0  0  0  0  0
   -5.4910    0.0909   -0.2798 C   0  0  0  0  0  0  0  0  0  0  0  0
   -5.2374   -1.2886   -0.2676 C   0  0  0  0  0  0  0  0  0  0  0  0
    8.4964    1.7938   -0.7492 C   0  0  0  0  0  0  0  0  0  0  0  0
   -6.7761    0.5389   -0.3452 O   0  0  0  0  0  0  0  0  0  0  0  0
   -7.0581    1.7908    0.2769 C   0  0  0  0  0  0  0  0  0  0  0  0
   -8.4964    1.7938    0.7492 C   0  0  0  0  0  0  0  0  0  0  0  0
  1  2  1  0  0  0  0 
  1  3  1  0  0  0  0 
  2  4  2  0  0  0  0 
  2  5  1  0  0  0  0 
  6  3  2  0  0  0  0 
  3  7  1  0  0  0  0 
  8  4  1  0  0  0  0 
  4  9  1  0  0  0  0 
 10  5  2  0  0  0  0 
  6  5  1  0  0  0  0 
  6 11  1  0  0  0  0 
  7 12  2  0  0  0  0 
  8 13  1  0  0  0  0 
 14  9  2  0  0  0  0 
 15  9  1  0  0  0  0 
 11 16  2  0  0  0  0 
 17 12  1  0  0  0  0 
 12 16  1  0  0  0  0 
 15 13  2  0  0  0  0 
 13 18  1  0  0  0  0 
 15 19  1  0  0  0  0 
 17 20  1  0  0  0  0 
 18 21  2  0  0  0  0 
 19 22  2  0  0  0  0 
 20 23  1  0  0  0  0 
 24 21  1  0  0  0  0 
 21 22  1  0  0  0  0 
 24 25  1  0  0  0  0 
 25 26  1  0  0  0  0 
M  END
> <Name>
C.I. VAT ORANGE 5

> <Source>
Chemidplus3DMolFile

> <Tox>
-6.699

> <CAS>
3263-31-8

$$$$

  CDK

  7  6  0  0  0  0  0  0  0  0999 V2000
   -1.8612    1.1670    0.4388 O   0  0  0  0  0  0  0  0  0  0  0  0
   -1.6263   -0.1118   -0.1395 C   0  0  0  0  0  0  0  0  0  0  0  0
   -0.2690   -0.6374    0.3307 C   0  0  0  0  0  0  0  0  0  0  0  0
   -0.0032   -2.0291   -0.2320 C   0  0  0  0  0  0  0  0  0  0  0  0
    0.8648    0.2975   -0.0892 C   0  0  0  0  0  0  0  0  0  0  0  0
    0.8366    0.9406   -1.1385 O   0  0  0  0  0  0  0  0  0  0  0  0
    2.0584    0.3732    0.8296 C   0  0  0  0  0  0  0  0  0  0  0  0
  1  2  1  0  0  0  0 
  3  2  1  0  0  0  0 
  3  4  1  0  0  0  0 
  3  5  1  0  0  0  0 
  6  5  2  0  0  0  0 
  5  7  1  0  0  0  0 
M  END
> <Name>
4-HYDROXY-3-METHYL-2-BUTANONE

> <Source>
Chemidplus3DMolFile

> <Tox>
-0.646

> <CAS>
3393-64-4

$$$$

  CDK

  7  6  0  0  0  0  0  0  0  0999 V2000
    2.8170    0.7995    2.0985 C   0  0  0  0  0  0  0  0  0  0  0  0
    2.2847    1.8651    3.0797 C   0  0  0  0  0  0  0  0  0  0  0  0
    3.1508    1.3496    0.7288 C   0  0  0  0  0  0  0  0  0  0  0  0
    2.0571    1.1807    4.4028 C   0  0  0  0  0  0  0  0  0  0  0  0
    3.3269    2.9615    3.3101 C   0  0  0  0  0  0  0  0  0  0  0  0
    1.0162    2.4904    2.5046 C   0  0  0  0  0  0  0  0  0  0  0  0
    0.9192    1.1551    5.0843 C   0  0  0  0  0  0  0  0  0  0  0  0
  1  2  1  0  0  0  0 
  1  3  1  0  0  0  0 
  2  4  1  0  0  0  0 
  2  5  1  0  0  0  0 
  2  6  1  0  0  0  0 
  4  7  2  0  0  0  0 
M  END
> <Name>
3,3-DIMETHYL-1-PENTENE

> <Source>
NIST3DMolFile

> <Tox>
2.017

> <CAS>
3404-73-7

$$$$

  CDK

  8  7  0  0  0  0  0  0  0  0999 V2000
    1.9395    1.9351    2.9095 C   0  0  0  0  0  0  0  0  0  0  0  0
    3.1583    1.9484    3.7606 C   0  0  0  0  0  0  0  0  0  0  0  0
    2.1124    1.0198    1.6946 C   0  0  0  0  0  0  0  0  0  0  0  0
    3.1502    1.9418    5.0997 C   0  0  0  0  0  0  0  0  0  0  0  0
    3.2328    1.5198    0.7969 C   0  0  0  0  0  0  0  0  0  0  0  0
    0.8100    0.9260    0.9182 C   0  0  0  0  0  0  0  0  0  0  0  0
    4.4169    1.9765    5.8788 C   0  0  0  0  0  0  0  0  0  0  0  0
    1.9042    1.9050    5.9084 C   0  0  0  0  0  0  0  0  0  0  0  0
  1  2  1  0  0  0  0 
  1  3  1  0  0  0  0 
  2  4  2  0  0  0  0 
  3  5  1  0  0  0  0 
  3  6  1  0  0  0  0 
  4  7  1  0  0  0  0 
  4  8  1  0  0  0  0 
M  END
> <Name>
2,5-DIMETHYL-2-HEXENE

> <Source>
NIST3DMolFile

> <Tox>
1.398

> <CAS>
3404-78-2

$$$$

  CDK

 18 19  0  0  0  0  0  0  0  0999 V2000
    6.9097   -1.9915    0.0000 C   0  0  0  0  0  0  0  0  0  0  0  0
    8.0626   -2.6607    0.0000 C   0  0  0  0  0  0  0  0  0  0  0  0
    5.7567   -2.6607    0.0000 C   0  0  0  0  0  0  0  0  0  0  0  0
    6.9097   -0.6611    0.0000 Cl  0  0  0  0  0  0  0  0  0  0  0  0
    8.0626   -3.9910    0.0000 C   0  0  0  0  0  0  0  0  0  0  0  0
    5.7567   -3.9910    0.0000 C   0  0  0  0  0  0  0  0  0  0  0  0
    4.6038   -1.9915    0.0000 C   0  0  0  0  0  0  0  0  0  0  0  0
    6.9097   -4.6521    0.0000 C   0  0  0  0  0  0  0  0  0  0  0  0
    4.6038   -0.6611    0.0000 C   0  0  0  0  0  0  0  0  0  0  0  0
    3.4589   -2.6607    0.0000 C   0  0  0  0  0  0  0  0  0  0  0  0
    3.4589   -0.0000    0.0000 Cl  0  0  0  0  0  0  0  0  0  0  0  0
    5.7567   -0.0000    0.0000 Cl  0  0  0  0  0  0  0  0  0  0  0  0
    3.4589   -3.9910    0.0000 C   0  0  0  0  0  0  0  0  0  0  0  0
    2.3059   -1.9915    0.0000 C   0  0  0  0  0  0  0  0  0  0  0  0
    2.3059   -4.6521    0.0000 C   0  0  0  0  0  0  0  0  0  0  0  0
    1.1530   -2.6607    0.0000 C   0  0  0  0  0  0  0  0  0  0  0  0
    1.1530   -3.9910    0.0000 C   0  0  0  0  0  0  0  0  0  0  0  0
    0.0000   -4.6521    0.0000 Cl  0  0  0  0  0  0  0  0  0  0  0  0
  1  2  1  0  0  0  0 
  1  3  2  0  0  0  0 
  1  4  1  0  0  0  0 
  2  5  2  0  0  0  0 
  6  3  1  0  0  0  0 
  3  7  1  0  0  0  0 
  5  8  1  0  0  0  0 
  8  6  2  0  0  0  0 
  7  9  2  0  0  0  0 
  7 10  1  0  0  0  0 
  9 11  1  0  0  0  0 
  9 12  1  0  0  0  0 
 10 13  2  0  0  0  0 
 10 14  1  0  0  0  0 
 13 15  1  0  0  0  0 
 16 14  2  0  0  0  0 
 15 17  2  0  0  0  0 
 17 16  1  0  0  0  0 
 17 18  1  0  0  0  0 
M  END
> <Name>
O,P'-DDE

> <Source>
DSSTox2DMolFile

> <Tox>
-5.208

> <CAS>
3424-82-6

$$$$

  CDK

  9  8  0  0  0  0  0  0  0  0999 V2000
    1.0017    2.0313    1.2771 Cl  0  0  0  0  0  0  0  0  0  0  0  0
   -0.0150    0.7954    0.0101 Si  0  0  0  0  0  0  0  0  0  0  0  0
   -0.9983    2.0262   -1.2880 Cl  0  0  0  0  0  0  0  0  0  0  0  0
    1.2141   -0.2337   -0.9463 C   0  0  0  0  0  0  0  0  0  0  0  0
   -1.2146   -0.2267    0.9477 C   0  0  0  0  0  0  0  0  0  0  0  0
    2.0506   -1.1418   -0.0915 C   0  0  0  0  0  0  0  0  0  0  0  0
   -2.0442   -1.1396    0.0911 C   0  0  0  0  0  0  0  0  0  0  0  0
    3.3818   -1.0517    0.0160 C   0  0  0  0  0  0  0  0  0  0  0  0
   -3.3760   -1.0595   -0.0163 C   0  0  0  0  0  0  0  0  0  0  0  0
  1  2  1  0  0  0  0 
  3  2  1  0  0  0  0 
  2  4  1  0  0  0  0 
  2  5  1  0  0  0  0 
  4  6  1  0  0  0  0 
  5  7  1  0  0  0  0 
  6  8  2  0  0  0  0 
  7  9  2  0  0  0  0 
M  END
> <Name>
DIALLYLDICHLOROSILANE

> <Source>
Chemidplus3DMolFile

> <Tox>
0.446

> <CAS>
3651-23-8

$$$$

  CDK

 27 30  0  0  0  0  0  0  0  0999 V2000
    2.2619   -1.6844    0.0000 C   0  0  0  0  0  0  0  0  0  0  0  0
    2.2619   -2.9838    0.0000 C   0  0  0  0  0  0  0  0  0  0  0  0
    3.5132   -1.2633    0.0000 C   0  0  0  0  0  0  0  0  0  0  0  0
    1.1430   -1.0227    0.0000 C   0  0  0  0  0  0  0  0  0  0  0  0
    3.5132   -3.3689    0.0000 C   0  0  0  0  0  0  0  0  0  0  0  0
    1.1430   -3.6335    0.0000 C   0  0  0  0  0  0  0  0  0  0  0  0
    4.2953   -2.3341    0.0000 C   0  0  0  0  0  0  0  0  0  0  0  0
    3.9464   -0.0000    0.0000 O   0  0  0  0  0  0  0  0  0  0  0  0
    0.0000   -1.6844    0.0000 C   0  0  0  0  0  0  0  0  0  0  0  0
    3.7539   -4.6803    0.0000 O   0  0  0  0  0  0  0  0  0  0  0  0
    0.0000   -2.9838    0.0000 C   0  0  0  0  0  0  0  0  0  0  0  0
    5.5827   -2.3341    0.0000 C   0  0  0  0  0  0  0  0  0  0  0  0
    6.2324   -1.1911    0.0000 O   0  0  0  0  0  0  0  0  0  0  0  0
    6.8340   -3.8381    0.0000 C   0  0  0  0  0  0  0  0  0  0  0  0
    6.1843   -4.9811    0.0000 C   0  0  0  0  0  0  0  0  0  0  0  0
    8.1334   -3.8381    0.0000 C   0  0  0  0  0  0  0  0  0  0  0  0
    4.8487   -4.9811    0.0000 C   0  0  0  0  0  0  0  0  0  0  0  0
    6.8340   -6.1000    0.0000 C   0  0  0  0  0  0  0  0  0  0  0  0
    8.7711   -4.9811    0.0000 C   0  0  0  0  0  0  0  0  0  0  0  0
    8.7711   -2.7312    0.0000 C   0  0  0  0  0  0  0  0  0  0  0  0
    4.1990   -6.1361    0.0000 C   0  0  0  0  0  0  0  0  0  0  0  0
    6.1843   -7.2430    0.0000 C   0  0  0  0  0  0  0  0  0  0  0  0
   10.0825   -4.9811    0.0000 C   0  0  0  0  0  0  0  0  0  0  0  0
   10.0825   -2.7312    0.0000 C   0  0  0  0  0  0  0  0  0  0  0  0
    4.8848   -7.2430    0.0000 C   0  0  0  0  0  0  0  0  0  0  0  0
   10.7322   -3.8381    0.0000 C   0  0  0  0  0  0  0  0  0  0  0  0
   12.0316   -3.8381    0.0000 Cl  0  0  0  0  0  0  0  0  0  0  0  0
  1  2  2  0  0  0  0 
  1  3  1  0  0  0  0 
  1  4  1  0  0  0  0 
  2  5  1  0  0  0  0 
  2  6  1  0  0  0  0 
  7  3  1  0  0  0  0 
  3  8  2  0  0  0  0 
  4  9  2  0  0  0  0 
  7  5  1  0  0  0  0 
  5 10  2  0  0  0  0 
  6 11  2  0  0  0  0 
  7 12  1  0  0  0  0 
 11  9  1  0  0  0  0 
 12 13  2  0  0  0  0 
 12 14  1  0  0  0  0 
 14 15  1  0  0  0  0 
 14 16  1  0  0  0  0 
 15 17  2  0  0  0  0 
 15 18  1  0  0  0  0 
 16 19  2  0  0  0  0 
 16 20  1  0  0  0  0 
 17 21  1  0  0  0  0 
 18 22  2  0  0  0  0 
 19 23  1  0  0  0  0 
 20 24  2  0  0  0  0 
 21 25  2  0  0  0  0 
 22 25  1  0  0  0  0 
 23 26  2  0  0  0  0 
 24 26  1  0  0  0  0 
 26 27  1  0  0  0  0 
M  END
> <Name>
CHLOROPHACINONE

> <Source>
DSSTox2DMolFile

> <Tox>
-9.125

> <CAS>
3691-35-8

$$$$

  CDK

 19 21  0  0  0  0  0  0  0  0999 V2000
    3.2334    2.1426    0.0000 C   0  0  0  0  0  0  0  0  0  0  0  0
    3.0386    1.3635    0.0000 Cl  0  0  0  0  0  0  0  0  0  0  0  0
    1.9089    1.3635    0.0000 C   0  0  0  0  0  0  0  0  0  0  0  0
    2.8828    3.6619    0.0000 C   0  0  0  0  0  0  0  0  0  0  0  0
    4.6747    1.5582    0.0000 C   0  0  0  0  0  0  0  0  0  0  0  0
    1.5193    2.0257    0.0000 C   0  0  0  0  0  0  0  0  0  0  0  0
    1.3635    0.7791    0.0000 C   0  0  0  0  0  0  0  0  0  0  0  0
    2.9607    4.4410    0.0000 Cl  0  0  0  0  0  0  0  0  0  0  0  0
    2.1426    3.9735    0.0000 Cl  0  0  0  0  0  0  0  0  0  0  0  0
    3.4281    2.8828    0.0000 C   0  0  0  0  0  0  0  0  0  0  0  0
    5.0643    0.8570    0.0000 Cl  0  0  0  0  0  0  0  0  0  0  0  0
    4.8695    2.2984    0.0000 C   0  0  0  0  0  0  0  0  0  0  0  0
    0.7402    1.8699    0.0000 C   0  0  0  0  0  0  0  0  0  0  0  0
    1.5193    0.0000    0.0000 Cl  0  0  0  0  0  0  0  0  0  0  0  0
    0.6623    1.0908    0.0000 C   0  0  0  0  0  0  0  0  0  0  0  0
    3.6619    3.6229    0.0000 Cl  0  0  0  0  0  0  0  0  0  0  0  0
    5.5318    2.6880    0.0000 Cl  0  0  0  0  0  0  0  0  0  0  0  0
    0.1558    2.3763    0.0000 Cl  0  0  0  0  0  0  0  0  0  0  0  0
    0.0000    0.7012    0.0000 Cl  0  0  0  0  0  0  0  0  0  0  0  0
  1  2  1  0  0  0  0 
  1  3  1  0  0  0  0 
  1  4  1  0  0  0  0 
  5  1  1  0  0  0  0 
  3  6  1  0  0  0  0 
  3  7  1  0  0  0  0 
  4  8  1  0  0  0  0 
  4  9  1  0  0  0  0 
 10  4  1  0  0  0  0 
  5 11  1  0  0  0  0 
 12  5  2  0  0  0  0 
  6 10  1  0  0  0  0 
 13  6  1  0  0  0  0 
  7 14  1  0  0  0  0 
  7 15  1  0  0  0  0 
 10 12  1  0  0  0  0 
 10 16  1  0  0  0  0 
 12 17  1  0  0  0  0 
 15 13  1  0  0  0  0 
 13 18  1  0  0  0  0 
 15 19  1  0  0  0  0 
M  END
> <Name>
Nonachlor

> <Source>
NIST2DMolFile

> <Tox>
-6.000

> <CAS>
3734-49-4

$$$$

  CDK

 15 15  0  0  0  0  0  0  0  0999 V2000
    0.4890    0.8239    0.2954 C   0  0  0  0  0  0  0  0  0  0  0  0
    1.4616   -0.1746    0.1221 C   0  0  0  0  0  0  0  0  0  0  0  0
    0.8005    2.1816    0.1458 C   0  0  0  0  0  0  0  0  0  0  0  0
   -0.7837    0.4771    0.7504 O   0  0  0  0  0  0  0  0  0  0  0  0
    2.7589    0.2396   -0.2025 C   0  0  0  0  0  0  0  0  0  0  0  0
    1.2271   -1.6563    0.2650 C   0  0  0  0  0  0  0  0  0  0  0  0
    2.0962    2.5554   -0.1807 C   0  0  0  0  0  0  0  0  0  0  0  0
   -1.8549    0.6816   -0.0877 C   0  0  0  0  0  0  0  0  0  0  0  0
    3.0755    1.5828   -0.3534 C   0  0  0  0  0  0  0  0  0  0  0  0
    0.1931   -2.1586   -0.7467 C   0  0  0  0  0  0  0  0  0  0  0  0
    0.8586   -2.0224    1.6949 C   0  0  0  0  0  0  0  0  0  0  0  0
   -3.0486    0.4666    0.6381 N   0  0  0  0  0  0  0  0  0  0  0  0
   -1.7561    1.0385   -1.2489 O   0  0  0  0  0  0  0  0  0  0  0  0
    0.3128   -3.6457   -0.9976 C   0  0  0  0  0  0  0  0  0  0  0  0
   -4.3180    0.3242   -0.0890 C   0  0  0  0  0  0  0  0  0  0  0  0
  1  2  1  0  0  0  0 
  1  3  2  0  0  0  0 
  1  4  1  0  0  0  0 
  2  5  2  0  0  0  0 
  2  6  1  0  0  0  0 
  7  3  1  0  0  0  0 
  8  4  1  0  0  0  0 
  5  9  1  0  0  0  0 
  6 10  1  0  0  0  0 
  6 11  1  0  0  0  0 
  9  7  2  0  0  0  0 
  8 12  1  0  0  0  0 
  8 13  2  0  0  0  0 
 10 14  1  0  0  0  0 
 12 15  1  0  0  0  0 
M  END
> <Name>
N-METHYL O-SEC-BUTYL PHENYL CARBAMATE

> <Source>
DougDB3DMolFile

> <Tox>
-3.845

> <CAS>
3766-81-2

$$$$

  CDK

 11 10  0  0  0  0  0  0  0  0999 V2000
    1.8161   -0.0403   -0.2455 C   0  0  0  0  0  0  0  0  0  0  0  0
    2.7661    0.1531    0.8748 C   0  0  0  0  0  0  0  0  0  0  0  0
    2.0676   -0.2650   -1.4155 O   0  0  0  0  0  0  0  0  0  0  0  0
    0.5165    0.0593    0.1579 O   0  0  0  0  0  0  0  0  0  0  0  0
    4.0817    0.0828    0.6950 C   0  0  0  0  0  0  0  0  0  0  0  0
   -0.5078   -0.1042   -0.8229 C   0  0  0  0  0  0  0  0  0  0  0  0
   -1.8784    0.0064   -0.1389 C   0  0  0  0  0  0  0  0  0  0  0  0
   -2.0701    1.3115    0.6338 C   0  0  0  0  0  0  0  0  0  0  0  0
   -2.1375   -1.1987    0.7696 C   0  0  0  0  0  0  0  0  0  0  0  0
   -2.1669    2.5163   -0.2759 C   0  0  0  0  0  0  0  0  0  0  0  0
   -2.1984   -2.4878   -0.0210 C   0  0  0  0  0  0  0  0  0  0  0  0
  1  2  1  0  0  0  0 
  1  3  2  0  0  0  0 
  1  4  1  0  0  0  0 
  2  5  2  0  0  0  0 
  4  6  1  0  0  0  0 
  6  7  1  0  0  0  0 
  7  8  1  0  0  0  0 
  7  9  1  0  0  0  0 
  8 10  1  0  0  0  0 
  9 11  1  0  0  0  0 
M  END
> <Name>
2-ETHYLBUTYL ACRYLATE

> <Source>
DougDB3DMolFile

> <Tox>
0.230

> <CAS>
3953-10-4

$$$$

  CDK

  6  5  0  0  0  0  0  0  0  0999 V2000
    2.9310    1.6943    1.9542 C   0  0  0  0  0  0  0  0  0  0  0  0
    1.4620    1.4613    1.9908 C   0  0  0  0  0  0  0  0  0  0  0  0
    3.6855    1.3914    0.8966 C   0  0  0  0  0  0  0  0  0  0  0  0
    1.0096    0.8484    3.3099 C   0  0  0  0  0  0  0  0  0  0  0  0
    5.1430    1.6400    0.8475 C   0  0  0  0  0  0  0  0  0  0  0  0
    0.9780    1.8525    4.4406 C   0  0  0  0  0  0  0  0  0  0  0  0
  1  2  1  0  0  0  0 
  1  3  2  0  0  0  0 
  2  4  1  0  0  0  0 
  3  5  1  0  0  0  0 
  4  6  1  0  0  0  0 
M  END
> <Name>
2-HEXENE (TRANS)

> <Source>
NIST3DMolFile

> <Tox>
2.190

> <CAS>
4050-45-7

$$$$

  CDK

  6  5  0  0  0  0  0  0  0  0999 V2000
    3.3250   -1.1509    0.0000 O   0  0  0  0  0  0  0  0  0  0  0  0
    1.9943   -1.1509    0.0000 N   0  0  0  0  0  0  0  0  0  0  0  0
    1.3307   -0.0000    0.0000 O   0  0  0  0  0  0  0  0  0  0  0  0
    1.3307   -2.3053    0.0000 N   0  0  0  0  0  0  0  0  0  0  0  0
    1.9943   -3.4563    0.0000 C   0  0  0  0  0  0  0  0  0  0  0  0
    0.0000   -2.3053    0.0000 C   0  0  0  0  0  0  0  0  0  0  0  0
  1  2  1  0  0  0  0 
  2  3  2  0  0  0  0 
  2  4  1  0  0  0  0 
  4  5  1  0  0  0  0 
  4  6  1  0  0  0  0 
M  CHG  1   1  -1
M  CHG  1   2   1
M  END
> <Name>
DIMETHYLNITRAMINE

> <Source>
DSSTox2DMolFile

> <Tox>
-0.442

> <CAS>
4164-28-7

$$$$

  CDK

 13 12  0  0  0  0  0  0  0  0999 V2000
    6.0462    0.4997    0.0000 C   0  0  0  0  0  0  0  0  0  0  0  0
    5.1968    0.0000    0.0000 C   0  0  0  0  0  0  0  0  0  0  0  0
    6.9457    0.0000    0.0000 C   0  0  0  0  0  0  0  0  0  0  0  0
    4.3473    0.4997    0.0000 C   0  0  0  0  0  0  0  0  0  0  0  0
    7.7951    0.4997    0.0000 C   0  0  0  0  0  0  0  0  0  0  0  0
    3.4478    0.0000    0.0000 C   0  0  0  0  0  0  0  0  0  0  0  0
    8.6446    0.0000    0.0000 C   0  0  0  0  0  0  0  0  0  0  0  0
    2.5984    0.4997    0.0000 C   0  0  0  0  0  0  0  0  0  0  0  0
    9.5440    0.4997    0.0000 C   0  0  0  0  0  0  0  0  0  0  0  0
    1.7489    0.0000    0.0000 C   0  0  0  0  0  0  0  0  0  0  0  0
   10.3935    0.0000    0.0000 C   0  0  0  0  0  0  0  0  0  0  0  0
    0.8495    0.4997    0.0000 C   0  0  0  0  0  0  0  0  0  0  0  0
    0.0000    0.0000    0.0000 I   0  0  0  0  0  0  0  0  0  0  0  0
  1  2  1  0  0  0  0 
  1  3  1  0  0  0  0 
  2  4  1  0  0  0  0 
  3  5  1  0  0  0  0 
  4  6  1  0  0  0  0 
  5  7  1  0  0  0  0 
  6  8  1  0  0  0  0 
  7  9  1  0  0  0  0 
  8 10  1  0  0  0  0 
  9 11  1  0  0  0  0 
 10 12  1  0  0  0  0 
 12 13  1  0  0  0  0 
M  END
> <Name>
1-IODODODECANE

> <Source>
NIST2DMolFile

> <Tox>
-1.854

> <CAS>
4292-19-7

$$$$

  CDK

 11 11  0  0  0  0  0  0  0  0999 V2000
    4.4039    1.9657    2.0819 C   0  0  0  0  0  0  0  0  0  0  0  0
    5.4538    1.8068    3.1710 C   0  0  0  0  0  0  0  0  0  0  0  0
    3.1031    2.5198    2.6366 C   0  0  0  0  0  0  0  0  0  0  0  0
    6.8117    1.4251    2.5826 C   0  0  0  0  0  0  0  0  0  0  0  0
    2.0511    2.6591    1.5479 C   0  0  0  0  0  0  0  0  0  0  0  0
    7.3733    2.5580    1.7274 C   0  0  0  0  0  0  0  0  0  0  0  0
    7.7989    1.0550    3.6929 C   0  0  0  0  0  0  0  0  0  0  0  0
    0.7576    3.2180    2.0959 C   0  0  0  0  0  0  0  0  0  0  0  0
    8.6325    2.1241    0.9902 C   0  0  0  0  0  0  0  0  0  0  0  0
    9.2497    1.2653    3.2742 C   0  0  0  0  0  0  0  0  0  0  0  0
    9.4380    1.0959    1.7769 C   0  0  0  0  0  0  0  0  0  0  0  0
  1  2  1  0  0  0  0 
  1  3  1  0  0  0  0 
  2  4  1  0  0  0  0 
  3  5  1  0  0  0  0 
  4  6  1  0  0  0  0 
  7  4  1  0  0  0  0 
  5  8  1  0  0  0  0 
  6  9  1  0  0  0  0 
 10  7  1  0  0  0  0 
  9 11  1  0  0  0  0 
 10 11  1  0  0  0  0 
M  END
> <Name>
PENTYLCYCLOHEXANE

> <Source>
NIST3DMolFile

> <Tox>
-0.429

> <CAS>
4292-92-6

$$$$

  CDK

 21 22  0  0  0  0  0  0  0  0999 V2000
   -6.4248    1.0321    0.2492 O   0  0  0  0  0  0  0  0  0  0  0  0
   -5.2043    1.2747    0.0884 N   0  0  0  0  0  0  0  0  0  0  0  0
   -4.7596    2.4469    0.0388 O   0  0  0  0  0  0  0  0  0  0  0  0
   -4.2981    0.1890   -0.0412 C   0  0  0  0  0  0  0  0  0  0  0  0
   -2.9371    0.4333   -0.2234 C   0  0  0  0  0  0  0  0  0  0  0  0
   -4.7703   -1.1225    0.0113 C   0  0  0  0  0  0  0  0  0  0  0  0
   -2.0546   -0.6349   -0.3523 C   0  0  0  0  0  0  0  0  0  0  0  0
   -3.8814   -2.1897   -0.1183 C   0  0  0  0  0  0  0  0  0  0  0  0
   -0.6830   -0.3891   -0.5353 N   0  0  0  0  0  0  0  0  0  0  0  0
   -2.5204   -1.9452   -0.3006 C   0  0  0  0  0  0  0  0  0  0  0  0
   -0.1075   -0.3241    0.5763 N   0  0  0  0  0  0  0  0  0  0  0  0
    1.2575   -0.0798    0.3946 C   0  0  0  0  0  0  0  0  0  0  0  0
    2.1463   -1.1471    0.2662 C   0  0  0  0  0  0  0  0  0  0  0  0
    1.7300    1.2315    0.3422 C   0  0  0  0  0  0  0  0  0  0  0  0
    3.5077   -0.9031    0.0852 C   0  0  0  0  0  0  0  0  0  0  0  0
    3.0914    1.4755    0.1611 C   0  0  0  0  0  0  0  0  0  0  0  0
    3.9802    0.4082    0.0327 C   0  0  0  0  0  0  0  0  0  0  0  0
    4.4376   -2.0650   -0.0481 C   0  0  0  0  0  0  0  0  0  0  0  0
    5.3554    0.6739   -0.1487 N   0  0  0  0  0  0  0  0  0  0  0  0
    5.8090    1.4352   -1.2944 C   0  0  0  0  0  0  0  0  0  0  0  0
    6.3260    0.2001    0.8164 C   0  0  0  0  0  0  0  0  0  0  0  0
  1  2  1  0  0  0  0 
  3  2  2  0  0  0  0 
  2  4  1  0  0  0  0 
  5  4  1  0  0  0  0 
  4  6  2  0  0  0  0 
  7  5  2  0  0  0  0 
  6  8  1  0  0  0  0 
  9  7  1  0  0  0  0 
  7 10  1  0  0  0  0 
 10  8  2  0  0  0  0 
 11  9  2  0  0  0  0 
 11 12  1  0  0  0  0 
 13 12  2  0  0  0  0 
 12 14  1  0  0  0  0 
 15 13  1  0  0  0  0 
 16 14  2  0  0  0  0 
 17 15  2  0  0  0  0 
 15 18  1  0  0  0  0 
 17 16  1  0  0  0  0 
 19 17  1  0  0  0  0 
 19 20  1  0  0  0  0 
 19 21  1  0  0  0  0 
M  CHG  1   1  -1
M  CHG  1   2   1
M  END
> <Name>
DIS. A. 17

> <Source>
Chemidplus3DMolFile

> <Tox>
-6.699

> <CAS>
4313-14-8

$$$$

  CDK

  7  6  0  0  0  0  0  0  0  0999 V2000
   -0.3112   -1.1520    0.8404 O   0  0  0  0  0  0  0  0  0  0  0  0
   -0.2787   -0.3206   -0.3253 C   0  0  0  0  0  0  0  0  0  0  0  0
    1.1107    0.3271   -0.4170 C   0  0  0  0  0  0  0  0  0  0  0  0
   -1.4279    0.6770   -0.1992 C   0  0  0  0  0  0  0  0  0  0  0  0
    1.3223    1.2027    0.6892 O   0  0  0  0  0  0  0  0  0  0  0  0
    2.2416   -0.6912   -0.4336 C   0  0  0  0  0  0  0  0  0  0  0  0
   -2.6569   -0.0431   -0.1544 O   0  0  0  0  0  0  0  0  0  0  0  0
  1  2  1  0  0  0  0 
  2  3  1  0  0  0  0 
  2  4  1  0  0  0  0 
  5  3  1  0  0  0  0 
  3  6  1  0  0  0  0 
  7  4  1  0  0  0  0 
M  END
> <Name>
1,2,3-TRIHYDROXYBUTANE

> <Source>
Chemidplus3DMolFile

> <Tox>
-2.474

> <CAS>
4435-50-1

$$$$

  CDK

  8  8  0  0  0  0  0  0  0  0999 V2000
    0.6970    2.7624    1.2055 C   0  0  0  0  0  0  0  0  0  0  0  0
    1.7291    1.9552    1.9881 C   0  0  0  0  0  0  0  0  0  0  0  0
    1.0124    1.1091    3.0336 C   0  0  0  0  0  0  0  0  0  0  0  0
    2.7435    2.9026    2.6573 C   0  0  0  0  0  0  0  0  0  0  0  0
    2.5556    1.0679    1.0317 C   0  0  0  0  0  0  0  0  0  0  0  0
    3.9708    2.9316    1.7452 C   0  0  0  0  0  0  0  0  0  0  0  0
    4.0011    1.5528    1.0832 C   0  0  0  0  0  0  0  0  0  0  0  0
    5.2465    3.2473    2.4965 C   0  0  0  0  0  0  0  0  0  0  0  0
  1  2  1  0  0  0  0 
  2  3  1  0  0  0  0 
  2  4  1  0  0  0  0 
  5  2  1  0  0  0  0 
  4  6  1  0  0  0  0 
  7  5  1  0  0  0  0 
  6  7  1  0  0  0  0 
  6  8  1  0  0  0  0 
M  END
> <Name>
1,1,3-TRIMETHYLCYCLOPENTANE

> <Source>
NIST3DMolFile

> <Tox>
1.045

> <CAS>
4516-69-2

$$$$

  CDK

  8  7  0  0  0  0  0  0  0  0999 V2000
    0.0000   -1.1549    0.0000 N   0  0  0  0  0  0  0  0  0  0  0  0
    1.3284   -1.1549    0.0000 C   0  0  0  0  0  0  0  0  0  0  0  0
    2.6568   -1.1549    0.0000 C   0  0  0  0  0  0  0  0  0  0  0  0
    3.3270   -2.3038    0.0000 C   0  0  0  0  0  0  0  0  0  0  0  0
    3.3270   -0.0000    0.0000 C   0  0  0  0  0  0  0  0  0  0  0  0
    4.6555   -2.3038    0.0000 C   0  0  0  0  0  0  0  0  0  0  0  0
    5.3197   -1.1549    0.0000 C   0  0  0  0  0  0  0  0  0  0  0  0
    5.9839   -0.0000    0.0000 N   0  0  0  0  0  0  0  0  0  0  0  0
  1  2  3  0  0  0  0 
  2  3  1  0  0  0  0 
  3  4  1  0  0  0  0 
  3  5  1  0  0  0  0 
  4  6  1  0  0  0  0 
  6  7  1  0  0  0  0 
  7  8  3  0  0  0  0 
M  END
> <Name>
2-METHYLPENTANEDINITRILE

> <Source>
DSSTox2DMolFile

> <Tox>
-2.292

> <CAS>
4553-62-2

$$$$

  CDK

  5  4  0  0  0  0  0  0  0  0999 V2000
   -1.3530   -0.1070    0.0000 C   0  0  0  0  0  0  0  0  0  0  0  0
    0.0115   -0.5025    0.0001 C   0  0  0  0  0  0  0  0  0  0  0  0
   -2.4705    0.2052   -0.0001 N   0  0  0  0  0  0  0  0  0  0  0  0
    1.0027    0.3962    0.0003 C   0  0  0  0  0  0  0  0  0  0  0  0
    2.4283    0.0053   -0.0002 C   0  0  0  0  0  0  0  0  0  0  0  0
  1  2  1  0  0  0  0 
  1  3  3  0  0  0  0 
  2  4  2  0  0  0  0 
  4  5  1  0  0  0  0 
M  END
> <Name>
CROTONONITRILE

> <Source>
DougDB3DMolFile

> <Tox>
1.505

> <CAS>
4786-20-3

$$$$

  CDK

 17 16  0  0  0  0  0  0  0  0999 V2000
    1.2043   -0.0000    0.0000 C   0  0  0  0  0  0  0  0  0  0  0  0
    2.3897   -0.6210    0.0000 C   0  0  0  0  0  0  0  0  0  0  0  0
    0.0000   -0.6210    0.0000 Cl  0  0  0  0  0  0  0  0  0  0  0  0
    3.5187   -0.0000    0.0000 C   0  0  0  0  0  0  0  0  0  0  0  0
    4.7042   -0.6210    0.0000 C   0  0  0  0  0  0  0  0  0  0  0  0
    5.9085   -0.0000    0.0000 C   0  0  0  0  0  0  0  0  0  0  0  0
    7.0939   -0.6210    0.0000 C   0  0  0  0  0  0  0  0  0  0  0  0
    8.2230   -0.0000    0.0000 C   0  0  0  0  0  0  0  0  0  0  0  0
    9.4084   -0.6210    0.0000 C   0  0  0  0  0  0  0  0  0  0  0  0
   10.5939   -0.0000    0.0000 C   0  0  0  0  0  0  0  0  0  0  0  0
   11.7982   -0.6210    0.0000 C   0  0  0  0  0  0  0  0  0  0  0  0
   12.9836   -0.0000    0.0000 C   0  0  0  0  0  0  0  0  0  0  0  0
   14.1126   -0.6210    0.0000 C   0  0  0  0  0  0  0  0  0  0  0  0
   15.2981   -0.0000    0.0000 C   0  0  0  0  0  0  0  0  0  0  0  0
   16.5024   -0.6210    0.0000 C   0  0  0  0  0  0  0  0  0  0  0  0
   17.6126   -0.0000    0.0000 C   0  0  0  0  0  0  0  0  0  0  0  0
   18.8168   -0.6210    0.0000 C   0  0  0  0  0  0  0  0  0  0  0  0
  1  2  1  0  0  0  0 
  1  3  1  0  0  0  0 
  2  4  1  0  0  0  0 
  4  5  1  0  0  0  0 
  5  6  1  0  0  0  0 
  6  7  1  0  0  0  0 
  7  8  1  0  0  0  0 
  8  9  1  0  0  0  0 
  9 10  1  0  0  0  0 
 10 11  1  0  0  0  0 
 11 12  1  0  0  0  0 
 12 13  1  0  0  0  0 
 13 14  1  0  0  0  0 
 14 15  1  0  0  0  0 
 15 16  1  0  0  0  0 
 16 17  1  0  0  0  0 
M  END
> <Name>
1-CHLOROHEXADECANE

> <Source>
DSSTox2DMolFile

> <Tox>
-4.208

> <CAS>
4860-03-1

$$$$

  CDK

  8  7  0  0  0  0  0  0  0  0999 V2000
    3.4505    1.8159    2.1651 C   0  0  0  0  0  0  0  0  0  0  0  0
    4.5758    1.0295    2.8212 C   0  0  0  0  0  0  0  0  0  0  0  0
    2.0807    1.2398    2.5295 C   0  0  0  0  0  0  0  0  0  0  0  0
    5.9352    1.6935    2.6601 C   0  0  0  0  0  0  0  0  0  0  0  0
    1.8084    1.4064    4.0162 C   0  0  0  0  0  0  0  0  0  0  0  0
    0.9899    1.9095    1.7114 C   0  0  0  0  0  0  0  0  0  0  0  0
    6.4682    1.5543    1.2770 C   0  0  0  0  0  0  0  0  0  0  0  0
    7.6991    1.1335    1.0118 C   0  0  0  0  0  0  0  0  0  0  0  0
  1  2  1  0  0  0  0 
  1  3  1  0  0  0  0 
  2  4  1  0  0  0  0 
  3  5  1  0  0  0  0 
  3  6  1  0  0  0  0 
  4  7  1  0  0  0  0 
  7  8  2  0  0  0  0 
M  END
> <Name>
6-METHYL-1-HEPTENE

> <Source>
NIST3DMolFile

> <Tox>
1.401

> <CAS>
5026-76-6

$$$$

  CDK

 11 12  0  0  0  0  0  0  0  0999 V2000
   -1.5067    0.4847    0.0216 N   0  0  0  0  0  0  0  0  0  0  0  0
   -0.6540   -0.5964    0.0095 C   0  0  0  0  0  0  0  0  0  0  0  0
   -0.9408    1.7490    0.0029 C   0  0  0  0  0  0  0  0  0  0  0  0
   -2.9490    0.3037   -0.0207 C   0  0  0  0  0  0  0  0  0  0  0  0
   -0.8190   -1.8865    0.0005 N   0  0  0  0  0  0  0  0  0  0  0  0
    0.7933   -0.3214    0.0038 C   0  0  0  0  0  0  0  0  0  0  0  0
    0.3306    2.0321   -0.0046 N   0  0  0  0  0  0  0  0  0  0  0  0
    0.4745   -2.3865   -0.0052 C   0  0  0  0  0  0  0  0  0  0  0  0
    1.4466   -1.5206   -0.0018 N   0  0  0  0  0  0  0  0  0  0  0  0
    1.2334    0.9567   -0.0004 C   0  0  0  0  0  0  0  0  0  0  0  0
    2.5911    1.1854   -0.0058 N   0  0  0  0  0  0  0  0  0  0  0  0
  1  2  1  0  0  0  0 
  1  3  1  0  0  0  0 
  1  4  1  0  0  0  0 
  5  2  2  0  0  0  0 
  2  6  1  0  0  0  0 
  7  3  2  0  0  0  0 
  5  8  1  0  0  0  0 
  9  6  1  0  0  0  0 
  6 10  2  0  0  0  0 
  7 10  1  0  0  0  0 
  9  8  2  0  0  0  0 
 11 10  1  0  0  0  0 
M  END
> <Name>
3-Methyladenine

> <Source>
Chemidplus3DMolFile

> <Tox>
-8.921

> <CAS>
5142-23-4

$$$$

  CDK

  6  5  0  0  0  0  0  0  0  0999 V2000
    5.9264    0.6834    0.9634 C   0  0  0  0  0  0  0  0  0  0  0  0
    5.5265    2.0896    1.1845 C   0  0  0  0  0  0  0  0  0  0  0  0
    4.2641    2.5028    1.3527 C   0  0  0  0  0  0  0  0  0  0  0  0
    3.1223    1.6045    1.3379 C   0  0  0  0  0  0  0  0  0  0  0  0
    1.8674    2.0378    1.4995 C   0  0  0  0  0  0  0  0  0  0  0  0
    0.6968    1.1348    1.4864 C   0  0  0  0  0  0  0  0  0  0  0  0
  1  2  1  0  0  0  0 
  2  3  2  0  0  0  0 
  3  4  1  0  0  0  0 
  4  5  2  0  0  0  0 
  5  6  1  0  0  0  0 
M  END
> <Name>
2,4-HEXADIENE (CIS,TRANS)

> <Source>
NIST3DMolFile

> <Tox>
1.920

> <CAS>
5194-50-3

$$$$

  CDK

 16 17  0  0  0  0  0  0  0  0999 V2000
    2.3038   -2.6662    0.0000 C   0  0  0  0  0  0  0  0  0  0  0  0
    3.4717   -1.9816    0.0000 C   0  0  0  0  0  0  0  0  0  0  0  0
    1.1519   -1.9977    0.0000 C   0  0  0  0  0  0  0  0  0  0  0  0
    2.3038   -3.9953    0.0000 S   0  0  0  0  0  0  0  0  0  0  0  0
    4.5995   -2.6501    0.0000 N   0  0  0  0  0  0  0  0  0  0  0  0
    3.4717   -0.6525    0.0000 O   0  0  0  0  0  0  0  0  0  0  0  0
    0.0000   -2.6662    0.0000 O   0  0  0  0  0  0  0  0  0  0  0  0
    1.1519   -0.6686    0.0000 C   0  0  0  0  0  0  0  0  0  0  0  0
    1.1519   -4.6639    0.0000 C   0  0  0  0  0  0  0  0  0  0  0  0
    5.7513   -1.9816    0.0000 C   0  0  0  0  0  0  0  0  0  0  0  0
    0.0000   -3.9953    0.0000 C   0  0  0  0  0  0  0  0  0  0  0  0
    6.9032   -2.6501    0.0000 C   0  0  0  0  0  0  0  0  0  0  0  0
    5.7513   -0.6525    0.0000 C   0  0  0  0  0  0  0  0  0  0  0  0
    8.0551   -1.9816    0.0000 C   0  0  0  0  0  0  0  0  0  0  0  0
    6.9032   -0.0000    0.0000 C   0  0  0  0  0  0  0  0  0  0  0  0
    8.0551   -0.6525    0.0000 C   0  0  0  0  0  0  0  0  0  0  0  0
  1  2  1  0  0  0  0 
  1  3  2  0  0  0  0 
  1  4  1  0  0  0  0 
  2  5  1  0  0  0  0 
  2  6  2  0  0  0  0 
  3  7  1  0  0  0  0 
  3  8  1  0  0  0  0 
  4  9  1  0  0  0  0 
  5 10  1  0  0  0  0 
  7 11  1  0  0  0  0 
  9 11  1  0  0  0  0 
 10 12  1  0  0  0  0 
 10 13  2  0  0  0  0 
 12 14  2  0  0  0  0 
 13 15  1  0  0  0  0 
 14 16  1  0  0  0  0 
 15 16  2  0  0  0  0 
M  END
> <Name>
CARBOXIN

> <Source>
DSSTox2DMolFile

> <Tox>
-6.824

> <CAS>
5234-68-4

$$$$

  CDK

 18 19  0  0  0  0  0  0  0  0999 V2000
    8.0604   -2.4826    0.0000 O   0  0  0  0  0  0  0  0  0  0  0  0
    6.9239   -3.1355    0.0000 C   0  0  0  0  0  0  0  0  0  0  0  0
    8.0604   -1.1526    0.0000 C   0  0  0  0  0  0  0  0  0  0  0  0
    5.7713   -2.4826    0.0000 C   0  0  0  0  0  0  0  0  0  0  0  0
    6.9239   -4.4735    0.0000 C   0  0  0  0  0  0  0  0  0  0  0  0
    6.9239   -0.4756    0.0000 C   0  0  0  0  0  0  0  0  0  0  0  0
    5.7713   -1.1526    0.0000 S   0  0  0  0  0  0  0  0  0  0  0  0
    4.6186   -3.1355    0.0000 C   0  0  0  0  0  0  0  0  0  0  0  0
    4.4413   -1.1526    0.0000 O   0  0  0  0  0  0  0  0  0  0  0  0
    5.0942   -0.0000    0.0000 O   0  0  0  0  0  0  0  0  0  0  0  0
    4.6186   -4.4735    0.0000 O   0  0  0  0  0  0  0  0  0  0  0  0
    3.4579   -2.4826    0.0000 N   0  0  0  0  0  0  0  0  0  0  0  0
    2.3053   -3.1355    0.0000 C   0  0  0  0  0  0  0  0  0  0  0  0
    2.3053   -4.4735    0.0000 C   0  0  0  0  0  0  0  0  0  0  0  0
    1.1526   -2.4826    0.0000 C   0  0  0  0  0  0  0  0  0  0  0  0
    1.1526   -5.1426    0.0000 C   0  0  0  0  0  0  0  0  0  0  0  0
    0.0000   -3.1355    0.0000 C   0  0  0  0  0  0  0  0  0  0  0  0
    0.0000   -4.4735    0.0000 C   0  0  0  0  0  0  0  0  0  0  0  0
  1  2  1  0  0  0  0 
  1  3  1  0  0  0  0 
  2  4  2  0  0  0  0 
  2  5  1  0  0  0  0 
  6  3  1  0  0  0  0 
  4  7  1  0  0  0  0 
  4  8  1  0  0  0  0 
  7  6  1  0  0  0  0 
  7  9  2  0  0  0  0 
  7 10  2  0  0  0  0 
  8 11  2  0  0  0  0 
  8 12  1  0  0  0  0 
 12 13  1  0  0  0  0 
 13 14  2  0  0  0  0 
 13 15  1  0  0  0  0 
 14 16  1  0  0  0  0 
 15 17  2  0  0  0  0 
 16 18  2  0  0  0  0 
 17 18  1  0  0  0  0 
M  END
> <Name>
OXYCARBOXIN

> <Source>
DSSTox2DMolFile

> <Tox>
-7.377

> <CAS>
5259-88-1

$$$$

  CDK

  9  8  0  0  0  0  0  0  0  0999 V2000
    1.0341    1.8329   -0.2955 O   0  0  0  0  0  0  0  0  0  0  0  0
    1.0840    0.6995    0.5554 C   0  0  0  0  0  0  0  0  0  0  0  0
   -0.3338    0.3251    1.0027 C   0  0  0  0  0  0  0  0  0  0  0  0
    1.8260   -0.4211   -0.1481 C   0  0  0  0  0  0  0  0  0  0  0  0
   -1.3557    0.0382   -0.1068 C   0  0  0  0  0  0  0  0  0  0  0  0
    2.0333   -1.4942    0.6567 O   0  0  0  0  0  0  0  0  0  0  0  0
    2.2361   -0.3670   -1.3005 O   0  0  0  0  0  0  0  0  0  0  0  0
   -2.7842   -0.1667    0.3934 C   0  0  0  0  0  0  0  0  0  0  0  0
   -3.7397   -0.4467   -0.7573 C   0  0  0  0  0  0  0  0  0  0  0  0
  1  2  1  0  0  0  0 
  3  2  1  0  0  0  0 
  2  4  1  0  0  0  0 
  5  3  1  0  0  0  0 
  6  4  1  0  0  0  0 
  7  4  2  0  0  0  0 
  5  8  1  0  0  0  0 
  8  9  1  0  0  0  0 
M  END
> <Name>
HEXANOIC ACID, 2-HYDROXY-

> <Source>
Chemidplus3DMolFile

> <Tox>
-5.503

> <CAS>
6064-63-7

$$$$

  CDK

 13 14  0  0  0  0  0  0  0  0999 V2000
    4.1653    3.5275    2.0899 C   0  0  0  0  0  0  0  0  0  0  0  0
    5.5379    3.3633    2.3761 C   0  0  0  0  0  0  0  0  0  0  0  0
    3.6910    4.8259    1.7545 C   0  0  0  0  0  0  0  0  0  0  0  0
    3.3050    2.3884    2.1422 C   0  0  0  0  0  0  0  0  0  0  0  0
    6.4028    4.4913    2.3336 C   0  0  0  0  0  0  0  0  0  0  0  0
    6.0443    2.0768    2.7014 C   0  0  0  0  0  0  0  0  0  0  0  0
    4.5417    5.8959    1.7189 C   0  0  0  0  0  0  0  0  0  0  0  0
    3.8327    1.1561    2.4515 C   0  0  0  0  0  0  0  0  0  0  0  0
    1.8264    2.5216    1.8856 C   0  0  0  0  0  0  0  0  0  0  0  0
    5.9144    5.7281    2.0143 C   0  0  0  0  0  0  0  0  0  0  0  0
    5.2056    0.9970    2.7329 C   0  0  0  0  0  0  0  0  0  0  0  0
    1.0793    2.5527    3.2121 C   0  0  0  0  0  0  0  0  0  0  0  0
    1.3156    1.3882    1.0098 C   0  0  0  0  0  0  0  0  0  0  0  0
  1  2  2  0  0  0  0 
  1  3  1  0  0  0  0 
  4  1  1  0  0  0  0 
  5  2  1  0  0  0  0 
  2  6  1  0  0  0  0 
  3  7  2  0  0  0  0 
  8  4  2  0  0  0  0 
  4  9  1  0  0  0  0 
 10  5  2  0  0  0  0 
  6 11  2  0  0  0  0 
  7 10  1  0  0  0  0 
 11  8  1  0  0  0  0 
  9 12  1  0  0  0  0 
  9 13  1  0  0  0  0 
M  END
> <Name>
1-ISOPROPYLNAPHTHALENE

> <Source>
NIST3DMolFile

> <Tox>
-2.218

> <CAS>
6158-45-8

$$$$

  CDK

 21 24  0  0  0  0  0  0  0  0999 V2000
    6.5939    1.1378    0.0005 Br  0  0  0  0  0  0  0  0  0  0  0  0
    4.9193    0.2573    0.0000 C   0  0  0  0  0  0  0  0  0  0  0  0
    3.7440    1.0094   -0.0004 C   0  0  0  0  0  0  0  0  0  0  0  0
    4.8763   -1.1514    0.0004 C   0  0  0  0  0  0  0  0  0  0  0  0
    2.5581    0.3065   -0.0006 C   0  0  0  0  0  0  0  0  0  0  0  0
    3.6560   -1.8381    0.0001 C   0  0  0  0  0  0  0  0  0  0  0  0
    2.4950   -1.0937   -0.0007 C   0  0  0  0  0  0  0  0  0  0  0  0
    1.1665    0.7918   -0.0002 C   0  0  0  0  0  0  0  0  0  0  0  0
    1.1755   -1.5277   -0.0002 N   0  0  0  0  0  0  0  0  0  0  0  0
    0.8022    1.9477    0.0008 O   0  0  0  0  0  0  0  0  0  0  0  0
    0.3215   -0.4542   -0.0001 C   0  0  0  0  0  0  0  0  0  0  0  0
   -1.0111   -0.3998    0.0001 C   0  0  0  0  0  0  0  0  0  0  0  0
   -1.9498   -1.4003    0.0003 N   0  0  0  0  0  0  0  0  0  0  0  0
   -1.7518    0.9108    0.0003 C   0  0  0  0  0  0  0  0  0  0  0  0
   -3.2294   -0.8601    0.0007 C   0  0  0  0  0  0  0  0  0  0  0  0
   -1.2945    2.0332   -0.0010 O   0  0  0  0  0  0  0  0  0  0  0  0
   -3.1782    0.5404    0.0006 C   0  0  0  0  0  0  0  0  0  0  0  0
   -4.4472   -1.5075    0.0000 C   0  0  0  0  0  0  0  0  0  0  0  0
   -4.3030    1.3378    0.0002 C   0  0  0  0  0  0  0  0  0  0  0  0
   -5.6075   -0.7237   -0.0005 C   0  0  0  0  0  0  0  0  0  0  0  0
   -5.5357    0.6838   -0.0002 C   0  0  0  0  0  0  0  0  0  0  0  0
  1  2  1  0  0  0  0 
  3  2  2  0  0  0  0 
  2  4  1  0  0  0  0 
  5  3  1  0  0  0  0 
  6  4  2  0  0  0  0 
  5  7  2  0  0  0  0 
  5  8  1  0  0  0  0 
  7  6  1  0  0  0  0 
  9  7  1  0  0  0  0 
 10  8  2  0  0  0  0 
 11  8  1  0  0  0  0 
  9 11  1  0  0  0  0 
 11 12  2  0  0  0  0 
 13 12  1  0  0  0  0 
 12 14  1  0  0  0  0 
 13 15  1  0  0  0  0 
 16 14  2  0  0  0  0 
 17 14  1  0  0  0  0 
 17 15  1  0  0  0  0 
 15 18  2  0  0  0  0 
 17 19  2  0  0  0  0 
 18 20  1  0  0  0  0 
 19 21  1  0  0  0  0 
 21 20  2  0  0  0  0 
M  END
> <Name>
C.I. VAT BLUE 3

> <Source>
Chemidplus3DMolFile

> <Tox>
-6.523

> <CAS>
6492-73-5

$$$$

  CDK

 16 16  0  0  0  0  0  0  0  0999 V2000
    1.1612   -2.6172    0.0000 C   0  0  0  0  0  0  0  0  0  0  0  0
    1.1519   -3.9442    0.0000 C   0  0  0  0  0  0  0  0  0  0  0  0
    0.0000   -4.6170    0.0000 C   0  0  0  0  0  0  0  0  0  0  0  0
    2.3039   -4.6262    0.0000 N   0  0  0  0  0  0  0  0  0  0  0  0
    3.4650   -3.9719    0.0000 C   0  0  0  0  0  0  0  0  0  0  0  0
    4.5985   -4.6538    0.0000 N   0  0  0  0  0  0  0  0  0  0  0  0
    3.4650   -2.6541    0.0000 N   0  0  0  0  0  0  0  0  0  0  0  0
    5.7505   -3.9719    0.0000 C   0  0  0  0  0  0  0  0  0  0  0  0
    4.5985   -1.9721    0.0000 C   0  0  0  0  0  0  0  0  0  0  0  0
    6.9116   -4.6538    0.0000 N   0  0  0  0  0  0  0  0  0  0  0  0
    5.7505   -2.6448    0.0000 N   0  0  0  0  0  0  0  0  0  0  0  0
    4.5985   -0.6543    0.0000 S   0  0  0  0  0  0  0  0  0  0  0  0
    8.0635   -3.9719    0.0000 C   0  0  0  0  0  0  0  0  0  0  0  0
    3.4466   -0.0000    0.0000 C   0  0  0  0  0  0  0  0  0  0  0  0
    8.0635   -2.6541    0.0000 C   0  0  0  0  0  0  0  0  0  0  0  0
    9.2155   -4.6538    0.0000 C   0  0  0  0  0  0  0  0  0  0  0  0
  1  2  1  0  0  0  0 
  3  2  1  0  0  0  0 
  2  4  1  0  0  0  0 
  4  5  1  0  0  0  0 
  6  5  2  0  0  0  0 
  7  5  1  0  0  0  0 
  8  6  1  0  0  0  0 
  9  7  2  0  0  0  0 
 10  8  1  0  0  0  0 
 11  8  2  0  0  0  0 
 12  9  1  0  0  0  0 
 11  9  1  0  0  0  0 
 13 10  1  0  0  0  0 
 14 12  1  0  0  0  0 
 15 13  1  0  0  0  0 
 16 13  1  0  0  0  0 
M  END
> <Name>
PROMETRYNE

> <Source>
DSSTox2DMolFile

> <Tox>
-5.907

> <CAS>
7287-19-6

$$$$

  CDK

 10  9  0  0  0  0  0  0  0  0999 V2000
    4.5962   -4.6563    0.0000 C   0  0  0  0  0  0  0  0  0  0  0  0
    4.5962   -6.0081    0.0000 N   0  0  0  0  0  0  0  0  0  0  0  0
    3.4487   -3.9894    0.0000 C   0  0  0  0  0  0  0  0  0  0  0  0
    3.4487   -2.6676    0.0000 N   0  0  0  0  0  0  0  0  0  0  0  0
    2.2891   -2.0187    0.0000 C   0  0  0  0  0  0  0  0  0  0  0  0
    4.5962   -1.9887    0.0000 C   0  0  0  0  0  0  0  0  0  0  0  0
    1.1415   -2.6676    0.0000 C   0  0  0  0  0  0  0  0  0  0  0  0
    4.5602   -0.6669    0.0000 C   0  0  0  0  0  0  0  0  0  0  0  0
    0.0000   -2.0187    0.0000 N   0  0  0  0  0  0  0  0  0  0  0  0
    5.7378   -0.0000    0.0000 N   0  0  0  0  0  0  0  0  0  0  0  0
  1  2  3  0  0  0  0 
  1  3  1  0  0  0  0 
  3  4  1  0  0  0  0 
  5  4  1  0  0  0  0 
  6  4  1  0  0  0  0 
  7  5  1  0  0  0  0 
  8  6  1  0  0  0  0 
  7  9  3  0  0  0  0 
  8 10  3  0  0  0  0 
M  END
> <Name>
Acetonitrile, 2,2',2''-nitrilotris-

> <Source>
DSSTox2DMolFile

> <Tox>
-6.499

> <CAS>
7327-60-8

$$$$

  CDK

  6  5  0  0  0  0  0  0  0  0999 V2000
    3.3250   -1.1509    0.0000 C   0  0  0  0  0  0  0  0  0  0  0  0
    1.9943   -1.1509    0.0000 C   0  0  0  0  0  0  0  0  0  0  0  0
    1.3307   -0.0000    0.0000 Cl  0  0  0  0  0  0  0  0  0  0  0  0
    1.3307   -2.3053    0.0000 C   0  0  0  0  0  0  0  0  0  0  0  0
    1.9943   -3.4563    0.0000 Cl  0  0  0  0  0  0  0  0  0  0  0  0
    0.0000   -2.3053    0.0000 C   0  0  0  0  0  0  0  0  0  0  0  0
  1  2  1  0  0  0  0 
  2  3  1  0  0  0  0 
  2  4  1  0  0  0  0 
  4  5  1  0  0  0  0 
  4  6  1  0  0  0  0 
M  END
> <Name>
2,3-DICHLOROBUTANE

> <Source>
DSSTox2DMolFile

> <Tox>
1.387

> <CAS>
7581-97-7

$$$$

  CDK

  6  5  0  0  0  0  0  0  0  0999 V2000
   -0.0536    0.0000    0.1519 C   0  0  0  0  0  0  0  0  0  0  0  0
    0.8307   -0.0003    1.3779 C   0  0  0  0  0  0  0  0  0  0  0  0
    0.2231   -1.4237   -0.8433 Cl  0  0  0  0  0  0  0  0  0  0  0  0
    0.2231    1.4239   -0.8431 Cl  0  0  0  0  0  0  0  0  0  0  0  0
   -1.7512   -0.0001    0.6273 Cl  0  0  0  0  0  0  0  0  0  0  0  0
    2.3003    0.0000    1.0258 C   0  0  0  0  0  0  0  0  0  0  0  0
  1  2  1  0  0  0  0 
  1  3  1  0  0  0  0 
  1  4  1  0  0  0  0 
  1  5  1  0  0  0  0 
  2  6  1  0  0  0  0 
M  END
> <Name>
1,1,1-TRICHLOROPROPANE

> <Source>
DougDB3DMolFile

> <Tox>
1.500

> <CAS>
7789-89-1

$$$$

  CDK

  7  7  0  0  0  0  0  0  0  0999 V2000
    4.6755   -1.6364    0.0000 O   0  0  0  0  0  0  0  0  0  0  0  0
    3.4085   -1.2484    0.0000 C   0  0  0  0  0  0  0  0  0  0  0  0
    2.3518   -2.0666    0.0000 C   0  0  0  0  0  0  0  0  0  0  0  0
    2.9643   -0.0000    0.0000 N   0  0  0  0  0  0  0  0  0  0  0  0
    1.2671   -1.3138    0.0000 C   0  0  0  0  0  0  0  0  0  0  0  0
    1.6318   -0.0327    0.0000 O   0  0  0  0  0  0  0  0  0  0  0  0
    0.0000   -1.7440    0.0000 C   0  0  0  0  0  0  0  0  0  0  0  0
  1  2  2  0  0  0  0 
  2  3  1  0  0  0  0 
  2  4  1  0  0  0  0 
  3  5  2  0  0  0  0 
  6  4  1  0  0  0  0 
  5  6  1  0  0  0  0 
  5  7  1  0  0  0  0 
M  END
> <Name>
3-HYDROXY-5-METHYLISOXAZOLE

> <Source>
DSSTox2DMolFile

> <Tox>
-2.863

> <CAS>
10004-44-1

$$$$

  CDK

  8  7  0  0  0  0  0  0  0  0999 V2000
    3.4549   -2.6533    0.0000 C   0  0  0  0  0  0  0  0  0  0  0  0
    4.6065   -3.3259    0.0000 N   0  0  0  0  0  0  0  0  0  0  0  0
    2.3032   -1.9992    0.0000 C   0  0  0  0  0  0  0  0  0  0  0  0
    2.9758   -0.8476    0.0000 Br  0  0  0  0  0  0  0  0  0  0  0  0
    1.6491   -3.1508    0.0000 Br  0  0  0  0  0  0  0  0  0  0  0  0
    1.1516   -1.3267    0.0000 C   0  0  0  0  0  0  0  0  0  0  0  0
    1.1516   -0.0000    0.0000 O   0  0  0  0  0  0  0  0  0  0  0  0
    0.0000   -1.9992    0.0000 N   0  0  0  0  0  0  0  0  0  0  0  0
  1  2  3  0  0  0  0 
  1  3  1  0  0  0  0 
  3  4  1  0  0  0  0 
  3  5  1  0  0  0  0 
  3  6  1  0  0  0  0 
  6  7  2  0  0  0  0 
  6  8  1  0  0  0  0 
M  END
> <Name>
2,2-DIBROMO-2-CYANOACETAMIDE

> <Source>
DSSTox2DMolFile

> <Tox>
-3.046

> <CAS>
10222-01-2

$$$$

  CDK

  7  6  0  0  0  0  0  0  0  0999 V2000
    1.9962   -1.3252    0.0000 P   0  0  0  0  0  0  0  0  0  0  0  0
    1.9962   -0.0000    0.0000 O   0  0  0  0  0  0  0  0  0  0  0  0
    0.6710   -1.3252    0.0000 S   0  0  0  0  0  0  0  0  0  0  0  0
    3.3381   -1.3252    0.0000 N   0  0  0  0  0  0  0  0  0  0  0  0
    1.9962   -2.6538    0.0000 O   0  0  0  0  0  0  0  0  0  0  0  0
    0.0000   -2.4769    0.0000 C   0  0  0  0  0  0  0  0  0  0  0  0
    3.1479   -3.3114    0.0000 C   0  0  0  0  0  0  0  0  0  0  0  0
  1  2  2  0  0  0  0 
  1  3  1  0  0  0  0 
  1  4  1  0  0  0  0 
  1  5  1  0  0  0  0 
  3  6  1  0  0  0  0 
  5  7  1  0  0  0  0 
M  END
> <Name>
METHAMIDOPHOS

> <Source>
DSSTox2DMolFile

> <Tox>
-4.452

> <CAS>
10265-92-6

$$$$

  CDK

 14 15  0  0  0  0  0  0  0  0999 V2000
    0.0000    0.0000    0.0000 Cl  0  0  0  0  0  0  0  0  0  0  0  0
   -1.6600   -0.2000   -0.3800 C   0  0  0  0  0  0  0  0  0  0  0  0
   -2.4800    0.8800   -0.7600 C   0  0  0  0  0  0  0  0  0  0  0  0
   -2.2000   -1.5000   -0.3200 C   0  0  0  0  0  0  0  0  0  0  0  0
   -3.8400    0.6600   -1.0800 C   0  0  0  0  0  0  0  0  0  0  0  0
   -1.9800    2.2400   -0.8400 C   0  0  0  0  0  0  0  0  0  0  0  0
   -3.5600   -1.7200   -0.6400 C   0  0  0  0  0  0  0  0  0  0  0  0
   -4.3800   -0.6400   -1.0000 C   0  0  0  0  0  0  0  0  0  0  0  0
   -1.7000    2.8800   -2.1000 C   0  0  0  0  0  0  0  0  0  0  0  0
   -1.7400    2.9400    0.3400 C   0  0  0  0  0  0  0  0  0  0  0  0
   -1.2000    4.1800   -2.1200 C   0  0  0  0  0  0  0  0  0  0  0  0
   -1.9800    2.0800   -3.6000 Cl  0  0  0  0  0  0  0  0  0  0  0  0
   -1.2400    4.2600    0.3200 C   0  0  0  0  0  0  0  0  0  0  0  0
   -0.9800    4.8800   -0.9200 C   0  0  0  0  0  0  0  0  0  0  0  0
  1  2  1  0  0  0  0 
  2  3  2  0  0  0  0 
  2  4  1  0  0  0  0 
  3  5  1  0  0  0  0 
  3  6  1  0  0  0  0 
  7  4  2  0  0  0  0 
  5  8  2  0  0  0  0 
  6  9  2  0  0  0  0 
  6 10  1  0  0  0  0 
  8  7  1  0  0  0  0 
  9 11  1  0  0  0  0 
  9 12  1  0  0  0  0 
 13 10  2  0  0  0  0 
 11 14  2  0  0  0  0 
 14 13  1  0  0  0  0 
M  END
> <Name>
2,2'-DICHLOROBIPHENYL

> <Source>
NIH3DMolFile

> <Tox>
-2.561

> <CAS>
13029-08-8

$$$$

  CDK

 13 12  0  0  0  0  0  0  0  0999 V2000
    3.9423   -2.3368    0.0000 P   0  0  0  0  0  0  0  0  0  0  0  0
    3.9503   -0.9856    0.0000 O   0  0  0  0  0  0  0  0  0  0  0  0
    5.2697   -2.3050    0.0000 S   0  0  0  0  0  0  0  0  0  0  0  0
    2.6468   -2.3209    0.0000 S   0  0  0  0  0  0  0  0  0  0  0  0
    3.9662   -3.6482    0.0000 O   0  0  0  0  0  0  0  0  0  0  0  0
    5.9532   -1.1525    0.0000 C   0  0  0  0  0  0  0  0  0  0  0  0
    1.9871   -3.4654    0.0000 C   0  0  0  0  0  0  0  0  0  0  0  0
    5.1266   -4.3159    0.0000 C   0  0  0  0  0  0  0  0  0  0  0  0
    7.2965   -1.1525    0.0000 C   0  0  0  0  0  0  0  0  0  0  0  0
    0.6518   -3.4654    0.0000 C   0  0  0  0  0  0  0  0  0  0  0  0
    5.1425   -5.6353    0.0000 C   0  0  0  0  0  0  0  0  0  0  0  0
    7.9483   -0.0000    0.0000 C   0  0  0  0  0  0  0  0  0  0  0  0
    0.0000   -4.6497    0.0000 C   0  0  0  0  0  0  0  0  0  0  0  0
  1  2  2  0  0  0  0 
  1  3  1  0  0  0  0 
  1  4  1  0  0  0  0 
  1  5  1  0  0  0  0 
  3  6  1  0  0  0  0 
  4  7  1  0  0  0  0 
  5  8  1  0  0  0  0 
  6  9  1  0  0  0  0 
  7 10  1  0  0  0  0 
  8 11  1  0  0  0  0 
  9 12  1  0  0  0  0 
 10 13  1  0  0  0  0 
M  END
> <Name>
O-ETHYL S,S-DIPROPYL PHOSPHORODITHIOATE

> <Source>
DSSTox2DMolFile

> <Tox>
-3.420

> <CAS>
13194-48-4

$$$$

  CDK

  7  6  0  0  0  0  0  0  0  0999 V2000
    4.6506    2.9069    1.8947 C   0  0  0  0  0  0  0  0  0  0  0  0
    3.4011    2.1130    1.7397 C   0  0  0  0  0  0  0  0  0  0  0  0
    5.7820    2.3678    1.0288 C   0  0  0  0  0  0  0  0  0  0  0  0
    2.2106    2.6781    1.5369 C   0  0  0  0  0  0  0  0  0  0  0  0
    6.3941    1.1025    1.5874 C   0  0  0  0  0  0  0  0  0  0  0  0
    0.9198    1.9551    1.3904 C   0  0  0  0  0  0  0  0  0  0  0  0
    0.9950    0.4474    1.4681 C   0  0  0  0  0  0  0  0  0  0  0  0
  1  2  1  0  0  0  0 
  1  3  1  0  0  0  0 
  2  4  2  0  0  0  0 
  3  5  1  0  0  0  0 
  4  6  1  0  0  0  0 
  6  7  1  0  0  0  0 
M  END
> <Name>
3-HEPTENE (TRANS)

> <Source>
NIST3DMolFile

> <Tox>
1.719

> <CAS>
14686-14-7

$$$$

  CDK

 14 14  0  0  0  0  0  0  0  0999 V2000
    6.6492   -2.4669    0.0000 O   0  0  0  0  0  0  0  0  0  0  0  0
    5.9843   -3.6172    0.0000 C   0  0  0  0  0  0  0  0  0  0  0  0
    4.6545   -3.6172    0.0000 C   0  0  0  0  0  0  0  0  0  0  0  0
    6.6492   -4.7675    0.0000 C   0  0  0  0  0  0  0  0  0  0  0  0
    3.9895   -2.4669    0.0000 C   0  0  0  0  0  0  0  0  0  0  0  0
    2.6597   -2.4669    0.0000 C   0  0  0  0  0  0  0  0  0  0  0  0
    1.9948   -3.6172    0.0000 C   0  0  0  0  0  0  0  0  0  0  0  0
    1.9948   -1.3099    0.0000 C   0  0  0  0  0  0  0  0  0  0  0  0
    0.6649   -3.6172    0.0000 C   0  0  0  0  0  0  0  0  0  0  0  0
    2.6597   -4.7675    0.0000 C   0  0  0  0  0  0  0  0  0  0  0  0
    0.6649   -1.3099    0.0000 C   0  0  0  0  0  0  0  0  0  0  0  0
    1.7621   -0.0000    0.0000 C   0  0  0  0  0  0  0  0  0  0  0  0
    3.2448   -0.8578    0.0000 C   0  0  0  0  0  0  0  0  0  0  0  0
    0.0000   -2.4669    0.0000 C   0  0  0  0  0  0  0  0  0  0  0  0
  1  2  2  0  0  0  0 
  2  3  1  0  0  0  0 
  2  4  1  0  0  0  0 
  3  5  2  0  0  0  0 
  5  6  1  0  0  0  0 
  6  7  2  0  0  0  0 
  6  8  1  0  0  0  0 
  7  9  1  0  0  0  0 
  7 10  1  0  0  0  0 
 11  8  1  0  0  0  0 
  8 12  1  0  0  0  0 
  8 13  1  0  0  0  0 
  9 14  1  0  0  0  0 
 14 11  1  0  0  0  0 
M  END
> <Name>
beta-Ionone

> <Source>
DSSTox2DMolFile

> <Tox>
-1.268

> <CAS>
14901-07-6

$$$$

  CDK

  8  7  0  0  0  0  0  0  0  0999 V2000
    1.2078    2.0824    0.0000 O   0  0  0  0  0  0  0  0  0  0  0  0
    1.2078    0.7080    0.0000 C   0  0  0  0  0  0  0  0  0  0  0  0
    0.0000    0.0000    0.0000 Cl  0  0  0  0  0  0  0  0  0  0  0  0
    2.4156    0.0000    0.0000 O   0  0  0  0  0  0  0  0  0  0  0  0
    3.6233    0.7080    0.0000 C   0  0  0  0  0  0  0  0  0  0  0  0
    4.8311    0.0000    0.0000 C   0  0  0  0  0  0  0  0  0  0  0  0
    3.6233    1.9574    0.0000 C   0  0  0  0  0  0  0  0  0  0  0  0
    6.0389    0.7080    0.0000 C   0  0  0  0  0  0  0  0  0  0  0  0
  1  2  2  0  0  0  0 
  2  3  1  0  0  0  0 
  2  4  1  0  0  0  0 
  4  5  1  0  0  0  0 
  5  6  1  0  0  0  0 
  5  7  1  0  0  0  0 
  6  8  1  0  0  0  0 
M  END
> <Name>
sec-Butyl Chloroformate

> <Source>
IndexNet2DMolFile

> <Tox>
1.025

> <CAS>
17462-58-7

$$$$

  CDK

 19 18  0  0  0  0  0  0  0  0999 V2000
    0.0000    0.0000    0.0000 C   0  0  0  0  0  0  0  0  0  0  0  0
    1.2000   -0.8400    0.4600 C   0  0  0  0  0  0  0  0  0  0  0  0
    1.5400   -0.6000    1.9200 C   0  0  0  0  0  0  0  0  0  0  0  0
    2.7800   -1.3800    2.3800 C   0  0  0  0  0  0  0  0  0  0  0  0
    3.1600   -1.1000    3.8200 C   0  0  0  0  0  0  0  0  0  0  0  0
    4.4600   -1.7800    4.2400 C   0  0  0  0  0  0  0  0  0  0  0  0
    4.9200   -1.4000    5.6400 C   0  0  0  0  0  0  0  0  0  0  0  0
    6.3200   -1.9000    5.9600 C   0  0  0  0  0  0  0  0  0  0  0  0
    6.8800   -1.3200    7.2800 C   0  0  0  0  0  0  0  0  0  0  0  0
    8.3600   -1.5800    7.4400 C   0  0  0  0  0  0  0  0  0  0  0  0
    8.9800   -0.7400    8.5800 C   0  0  0  0  0  0  0  0  0  0  0  0
   10.5000   -0.7200    8.5200 C   0  0  0  0  0  0  0  0  0  0  0  0
   11.1200    0.3600    9.4200 C   0  0  0  0  0  0  0  0  0  0  0  0
   12.5800    0.6400    9.1000 C   0  0  0  0  0  0  0  0  0  0  0  0
   13.1000    1.9000    9.7800 C   0  0  0  0  0  0  0  0  0  0  0  0
   14.4800    2.3200    9.2600 C   0  0  0  0  0  0  0  0  0  0  0  0
   14.9400    3.6600    9.8400 C   0  0  0  0  0  0  0  0  0  0  0  0
   16.2400    4.1400    9.2200 C   0  0  0  0  0  0  0  0  0  0  0  0
   16.2400    5.3000    8.5600 C   0  0  0  0  0  0  0  0  0  0  0  0
  1  2  1  0  0  0  0 
  2  3  1  0  0  0  0 
  3  4  1  0  0  0  0 
  4  5  1  0  0  0  0 
  5  6  1  0  0  0  0 
  6  7  1  0  0  0  0 
  7  8  1  0  0  0  0 
  8  9  1  0  0  0  0 
  9 10  1  0  0  0  0 
 10 11  1  0  0  0  0 
 11 12  1  0  0  0  0 
 12 13  1  0  0  0  0 
 13 14  1  0  0  0  0 
 14 15  1  0  0  0  0 
 15 16  1  0  0  0  0 
 16 17  1  0  0  0  0 
 17 18  1  0  0  0  0 
 18 19  2  0  0  0  0 
M  END
> <Name>
1-NONADECENE

> <Source>
NIH3DMolFile

> <Tox>
-4.419

> <CAS>
18435-45-5

$$$$

  CDK

 18 20  0  0  0  0  0  0  0  0999 V2000
    3.8911    0.4096    0.0004 C   0  0  0  0  0  0  0  0  0  0  0  0
    2.4902   -0.1026   -0.0007 C   0  0  0  0  0  0  0  0  0  0  0  0
    4.6730   -0.0795   -1.2581 C   0  0  0  0  0  0  0  0  0  0  0  0
    4.6717   -0.0804    1.2591 C   0  0  0  0  0  0  0  0  0  0  0  0
    4.0361    1.9676    0.0011 C   0  0  0  0  0  0  0  0  0  0  0  0
    1.4200    0.7923   -0.0008 C   0  0  0  0  0  0  0  0  0  0  0  0
    2.2509   -1.4731   -0.0003 C   0  0  0  0  0  0  0  0  0  0  0  0
    0.0946    0.3264   -0.0007 C   0  0  0  0  0  0  0  0  0  0  0  0
    0.9407   -1.9522   -0.0002 C   0  0  0  0  0  0  0  0  0  0  0  0
   -0.1483   -1.0647   -0.0003 C   0  0  0  0  0  0  0  0  0  0  0  0
   -0.9940    1.2145   -0.0007 C   0  0  0  0  0  0  0  0  0  0  0  0
   -1.4735   -1.5313   -0.0001 C   0  0  0  0  0  0  0  0  0  0  0  0
   -2.3191    0.7480   -0.0003 C   0  0  0  0  0  0  0  0  0  0  0  0
   -2.5620   -0.6432    0.0001 C   0  0  0  0  0  0  0  0  0  0  0  0
   -3.4081    1.6353    0.0000 C   0  0  0  0  0  0  0  0  0  0  0  0
   -3.8874   -1.1090    0.0007 C   0  0  0  0  0  0  0  0  0  0  0  0
   -4.7183    1.1562    0.0003 C   0  0  0  0  0  0  0  0  0  0  0  0
   -4.9576   -0.2141    0.0005 C   0  0  0  0  0  0  0  0  0  0  0  0
  1  2  1  0  0  0  0 
  1  3  1  0  0  0  0 
  1  4  1  0  0  0  0 
  1  5  1  0  0  0  0 
  2  6  2  0  0  0  0 
  2  7  1  0  0  0  0 
  6  8  1  0  0  0  0 
  7  9  2  0  0  0  0 
  8 10  1  0  0  0  0 
  8 11  2  0  0  0  0 
 10  9  1  0  0  0  0 
 10 12  2  0  0  0  0 
 11 13  1  0  0  0  0 
 12 14  1  0  0  0  0 
 13 14  1  0  0  0  0 
 13 15  2  0  0  0  0 
 14 16  2  0  0  0  0 
 15 17  1  0  0  0  0 
 16 18  1  0  0  0  0 
 17 18  2  0  0  0  0 
M  END
> <Name>
2-(tert-Butyl)anthracene

> <Source>
Chemidplus3DMolFile

> <Tox>
-6.190

> <CAS>
18801-00-8

$$$$

  CDK

 14 13  0  0  0  0  0  0  0  0999 V2000
    0.0000    0.0000    0.0000 S   0  0  0  0  0  0  0  0  0  0  0  0
   -1.3000   -0.9600    0.8400 C   0  0  0  0  0  0  0  0  0  0  0  0
   -1.6800   -2.1800    0.0200 C   0  0  0  0  0  0  0  0  0  0  0  0
   -2.9600   -2.8600    0.5200 C   0  0  0  0  0  0  0  0  0  0  0  0
   -3.4800   -3.9400   -0.4400 C   0  0  0  0  0  0  0  0  0  0  0  0
   -4.9400   -4.3200   -0.1600 C   0  0  0  0  0  0  0  0  0  0  0  0
   -5.5400   -5.1200   -1.3000 C   0  0  0  0  0  0  0  0  0  0  0  0
   -7.0800   -5.1000   -1.2800 C   0  0  0  0  0  0  0  0  0  0  0  0
   -7.7000   -5.6000   -2.6000 C   0  0  0  0  0  0  0  0  0  0  0  0
   -9.1200   -5.1200   -2.8000 C   0  0  0  0  0  0  0  0  0  0  0  0
   -9.6600   -5.4000   -4.2000 C   0  0  0  0  0  0  0  0  0  0  0  0
  -10.9600   -4.6600   -4.5000 C   0  0  0  0  0  0  0  0  0  0  0  0
  -11.4000   -4.8000   -5.9600 C   0  0  0  0  0  0  0  0  0  0  0  0
  -12.6000   -3.9200   -6.3200 C   0  0  0  0  0  0  0  0  0  0  0  0
  1  2  1  0  0  0  0 
  2  3  1  0  0  0  0 
  3  4  1  0  0  0  0 
  4  5  1  0  0  0  0 
  5  6  1  0  0  0  0 
  6  7  1  0  0  0  0 
  7  8  1  0  0  0  0 
  8  9  1  0  0  0  0 
  9 10  1  0  0  0  0 
 10 11  1  0  0  0  0 
 11 12  1  0  0  0  0 
 12 13  1  0  0  0  0 
 13 14  1  0  0  0  0 
M  END
> <Name>
1-TRIDECANETHIOL

> <Source>
NIH3DMolFile

> <Tox>
-3.159

> <CAS>
19484-26-5

$$$$

  CDK

 14 13  0  0  0  0  0  0  0  0999 V2000
    1.1511   -3.3267    0.0000 C   0  0  0  0  0  0  0  0  0  0  0  0
    1.1511   -2.0029    0.0000 C   0  0  0  0  0  0  0  0  0  0  0  0
    0.0000   -1.3353    0.0000 O   0  0  0  0  0  0  0  0  0  0  0  0
    2.3022   -1.3353    0.0000 C   0  0  0  0  0  0  0  0  0  0  0  0
    3.4533   -2.0029    0.0000 O   0  0  0  0  0  0  0  0  0  0  0  0
    4.6044   -1.3353    0.0000 C   0  0  0  0  0  0  0  0  0  0  0  0
    4.6044   -0.0000    0.0000 C   0  0  0  0  0  0  0  0  0  0  0  0
    5.7556   -2.0029    0.0000 C   0  0  0  0  0  0  0  0  0  0  0  0
    6.9067   -1.3353    0.0000 O   0  0  0  0  0  0  0  0  0  0  0  0
    8.0578   -2.0029    0.0000 C   0  0  0  0  0  0  0  0  0  0  0  0
    8.0578   -3.3267    0.0000 C   0  0  0  0  0  0  0  0  0  0  0  0
    9.2089   -1.3353    0.0000 C   0  0  0  0  0  0  0  0  0  0  0  0
   10.3600   -2.0029    0.0000 O   0  0  0  0  0  0  0  0  0  0  0  0
   11.5111   -1.3353    0.0000 C   0  0  0  0  0  0  0  0  0  0  0  0
  1  2  1  0  0  0  0 
  2  3  1  0  0  0  0 
  2  4  1  0  0  0  0 
  4  5  1  0  0  0  0 
  5  6  1  0  0  0  0 
  6  7  1  0  0  0  0 
  6  8  1  0  0  0  0 
  8  9  1  0  0  0  0 
  9 10  1  0  0  0  0 
 10 11  1  0  0  0  0 
 10 12  1  0  0  0  0 
 12 13  1  0  0  0  0 
 13 14  1  0  0  0  0 
M  END
> <Name>
TRIPROPYLENE GLYCOL METHYL ETHER

> <Source>
DSSTox2DMolFile

> <Tox>
-1.699

> <CAS>
20324-33-8

$$$$

  CDK

 10  9  0  0  0  0  0  0  0  0999 V2000
    2.4088   -0.4032    0.0000 O   0  0  0  0  0  0  0  0  0  0  0  0
    2.9005    0.2592    0.0000 N   0  0  0  0  0  0  0  0  0  0  0  0
    1.5892   -0.3086    0.0000 C   0  0  0  0  0  0  0  0  0  0  0  0
    2.5727    1.0163    0.0000 O   0  0  0  0  0  0  0  0  0  0  0  0
    3.7201    0.1646    0.0000 O   0  0  0  0  0  0  0  0  0  0  0  0
    0.7697   -0.2140    0.0000 C   0  0  0  0  0  0  0  0  0  0  0  0
   -0.0499   -0.1193    0.0000 C   0  0  0  0  0  0  0  0  0  0  0  0
   -0.8694   -0.0247    0.0000 C   0  0  0  0  0  0  0  0  0  0  0  0
   -1.6890    0.0699    0.0000 C   0  0  0  0  0  0  0  0  0  0  0  0
   -2.5085    0.1646    0.0000 C   0  0  0  0  0  0  0  0  0  0  0  0
  1  2  1  0  0  0  0 
  1  3  1  0  0  0  0 
  2  4  2  0  0  0  0 
  2  5  2  0  0  0  0 
  3  6  1  0  0  0  0 
  6  7  1  0  0  0  0 
  7  8  1  0  0  0  0 
  8  9  1  0  0  0  0 
  9 10  1  0  0  0  0 
M  END
> <Name>
1-HEXYL NITRATE

> <Source>
Smiles

> <Tox>
0.199

> <CAS>
20633-11-8

$$$$

  CDK

 16 16  0  0  0  0  0  0  0  0999 V2000
    5.7576   -1.1826    0.0000 C   0  0  0  0  0  0  0  0  0  0  0  0
    4.6268   -0.5187    0.0000 N   0  0  0  0  0  0  0  0  0  0  0  0
    5.7576   -2.5313    0.0000 N   0  0  0  0  0  0  0  0  0  0  0  0
    6.9298   -0.5083    0.0000 N   0  0  0  0  0  0  0  0  0  0  0  0
    3.4753   -1.1826    0.0000 C   0  0  0  0  0  0  0  0  0  0  0  0
    4.6268   -3.1952    0.0000 C   0  0  0  0  0  0  0  0  0  0  0  0
    8.0710   -1.1826    0.0000 C   0  0  0  0  0  0  0  0  0  0  0  0
    3.4753   -2.5313    0.0000 N   0  0  0  0  0  0  0  0  0  0  0  0
    2.3030   -0.5083    0.0000 N   0  0  0  0  0  0  0  0  0  0  0  0
    4.6268   -4.5231    0.0000 Cl  0  0  0  0  0  0  0  0  0  0  0  0
    9.2432   -1.8362    0.0000 C   0  0  0  0  0  0  0  0  0  0  0  0
    8.7245   -0.0000    0.0000 C   0  0  0  0  0  0  0  0  0  0  0  0
    7.4485   -2.3134    0.0000 C   0  0  0  0  0  0  0  0  0  0  0  0
    1.1411   -1.1826    0.0000 C   0  0  0  0  0  0  0  0  0  0  0  0
   10.3740   -2.4586    0.0000 N   0  0  0  0  0  0  0  0  0  0  0  0
    0.0000   -0.5083    0.0000 C   0  0  0  0  0  0  0  0  0  0  0  0
  1  2  1  0  0  0  0 
  1  3  2  0  0  0  0 
  1  4  1  0  0  0  0 
  2  5  2  0  0  0  0 
  3  6  1  0  0  0  0 
  4  7  1  0  0  0  0 
  8  5  1  0  0  0  0 
  5  9  1  0  0  0  0 
  8  6  2  0  0  0  0 
  6 10  1  0  0  0  0 
 11  7  1  0  0  0  0 
  7 12  1  0  0  0  0 
  7 13  1  0  0  0  0 
  9 14  1  0  0  0  0 
 15 11  3  0  0  0  0 
 14 16  1  0  0  0  0 
M  END
> <Name>
CYANAZINE

> <Source>
DSSTox2DMolFile

> <Tox>
-6.860

> <CAS>
21725-46-2

$$$$

  CDK

  9  8  0  0  0  0  0  0  0  0999 V2000
    3.4369    1.4943    0.0000 O   0  0  0  0  0  0  0  0  0  0  0  0
    2.5902    0.9962    0.0000 C   0  0  0  0  0  0  0  0  0  0  0  0
    4.3335    1.0460    0.0000 N   0  0  0  0  0  0  0  0  0  0  0  0
    1.7434    1.4943    0.0000 C   0  0  0  0  0  0  0  0  0  0  0  0
    2.5902    0.0000    0.0000 C   0  0  0  0  0  0  0  0  0  0  0  0
    4.3335    0.0000    0.0000 O   0  0  0  0  0  0  0  0  0  0  0  0
    5.1803    1.5441    0.0000 O   0  0  0  0  0  0  0  0  0  0  0  0
    0.8468    0.9962    0.0000 C   0  0  0  0  0  0  0  0  0  0  0  0
    0.0000    1.4943    0.0000 C   0  0  0  0  0  0  0  0  0  0  0  0
  1  2  1  0  0  0  0 
  1  3  1  0  0  0  0 
  2  4  1  0  0  0  0 
  2  5  1  0  0  0  0 
  3  6  2  0  0  0  0 
  3  7  2  0  0  0  0 
  4  8  1  0  0  0  0 
  8  9  1  0  0  0  0 
M  END
> <Name>
ISOPENTYL NITRATE

> <Source>
NIST2DMolFile

> <Tox>
0.710

> <CAS>
21981-48-6

$$$$

  CDK

 14 13  0  0  0  0  0  0  0  0999 V2000
    5.3253   -4.6067    0.0000 O   0  0  0  0  0  0  0  0  0  0  0  0
    5.9879   -3.4570    0.0000 C   0  0  0  0  0  0  0  0  0  0  0  0
    5.3253   -2.2994    0.0000 C   0  0  0  0  0  0  0  0  0  0  0  0
    7.3213   -3.4570    0.0000 N   0  0  0  0  0  0  0  0  0  0  0  0
    3.9920   -2.2994    0.0000 N   0  0  0  0  0  0  0  0  0  0  0  0
    5.9879   -1.1497    0.0000 S   0  0  0  0  0  0  0  0  0  0  0  0
    7.9839   -2.2994    0.0000 C   0  0  0  0  0  0  0  0  0  0  0  0
    7.9839   -4.6067    0.0000 C   0  0  0  0  0  0  0  0  0  0  0  0
    3.3293   -1.1497    0.0000 O   0  0  0  0  0  0  0  0  0  0  0  0
    5.3253   -0.0000    0.0000 C   0  0  0  0  0  0  0  0  0  0  0  0
    1.9960   -1.1497    0.0000 C   0  0  0  0  0  0  0  0  0  0  0  0
    1.3333   -0.0000    0.0000 O   0  0  0  0  0  0  0  0  0  0  0  0
    1.3333   -2.2994    0.0000 N   0  0  0  0  0  0  0  0  0  0  0  0
    0.0000   -2.2994    0.0000 C   0  0  0  0  0  0  0  0  0  0  0  0
  1  2  2  0  0  0  0 
  2  3  1  0  0  0  0 
  2  4  1  0  0  0  0 
  3  5  2  0  0  0  0 
  3  6  1  0  0  0  0 
  4  7  1  0  0  0  0 
  4  8  1  0  0  0  0 
  5  9  1  0  0  0  0 
  6 10  1  0  0  0  0 
  9 11  1  0  0  0  0 
 11 12  2  0  0  0  0 
 11 13  1  0  0  0  0 
 13 14  1  0  0  0  0 
M  END
> <Name>
OXAMYL

> <Source>
DSSTox2DMolFile

> <Tox>
-3.638

> <CAS>
23135-22-0

$$$$

  CDK

 16 16  0  0  0  0  0  0  0  0999 V2000
    8.0620   -4.6575    0.0000 C   0  0  0  0  0  0  0  0  0  0  0  0
    6.9162   -3.9980    0.0000 C   0  0  0  0  0  0  0  0  0  0  0  0
    5.7621   -3.3303    0.0000 N   0  0  0  0  0  0  0  0  0  0  0  0
    7.5757   -2.8440    0.0000 C   0  0  0  0  0  0  0  0  0  0  0  0
    6.2485   -5.1439    0.0000 C   0  0  0  0  0  0  0  0  0  0  0  0
    4.6081   -3.9980    0.0000 C   0  0  0  0  0  0  0  0  0  0  0  0
    8.2434   -1.6899    0.0000 C   0  0  0  0  0  0  0  0  0  0  0  0
    4.6081   -5.3252    0.0000 O   0  0  0  0  0  0  0  0  0  0  0  0
    3.4540   -3.3303    0.0000 C   0  0  0  0  0  0  0  0  0  0  0  0
    2.3081   -3.9980    0.0000 C   0  0  0  0  0  0  0  0  0  0  0  0
    3.4540   -2.0031    0.0000 C   0  0  0  0  0  0  0  0  0  0  0  0
    1.1541   -3.3303    0.0000 C   0  0  0  0  0  0  0  0  0  0  0  0
    2.3081   -1.3354    0.0000 C   0  0  0  0  0  0  0  0  0  0  0  0
    1.1541   -2.0031    0.0000 C   0  0  0  0  0  0  0  0  0  0  0  0
    0.0000   -3.9980    0.0000 Cl  0  0  0  0  0  0  0  0  0  0  0  0
    2.3081   -0.0000    0.0000 Cl  0  0  0  0  0  0  0  0  0  0  0  0
  1  2  1  0  0  0  0 
  2  3  1  0  0  0  0 
  2  4  1  0  0  0  0 
  2  5  1  0  0  0  0 
  3  6  1  0  0  0  0 
  4  7  3  0  0  0  0 
  6  8  2  0  0  0  0 
  6  9  1  0  0  0  0 
  9 10  2  0  0  0  0 
  9 11  1  0  0  0  0 
 10 12  1  0  0  0  0 
 13 11  2  0  0  0  0 
 12 14  2  0  0  0  0 
 12 15  1  0  0  0  0 
 14 13  1  0  0  0  0 
 13 16  1  0  0  0  0 
M  END
> <Name>
PRONAMIDE

> <Source>
DSSTox2DMolFile

> <Tox>
-6.362

> <CAS>
23950-58-5

$$$$

  CDK

 12 11  0  0  0  0  0  0  0  0999 V2000
    0.6542   -2.3056    0.0000 C   0  0  0  0  0  0  0  0  0  0  0  0
    0.0000   -1.1568    0.0000 O   0  0  0  0  0  0  0  0  0  0  0  0
    1.9864   -2.3056    0.0000 O   0  0  0  0  0  0  0  0  0  0  0  0
    0.0000   -3.4623    0.0000 Cl  0  0  0  0  0  0  0  0  0  0  0  0
    2.6566   -1.1568    0.0000 C   0  0  0  0  0  0  0  0  0  0  0  0
    3.9888   -1.1568    0.0000 C   0  0  0  0  0  0  0  0  0  0  0  0
    4.6430   -2.3056    0.0000 C   0  0  0  0  0  0  0  0  0  0  0  0
    4.6430   -0.0000    0.0000 C   0  0  0  0  0  0  0  0  0  0  0  0
    5.9753   -2.3056    0.0000 C   0  0  0  0  0  0  0  0  0  0  0  0
    5.9753   -0.0000    0.0000 C   0  0  0  0  0  0  0  0  0  0  0  0
    6.6454   -3.4623    0.0000 C   0  0  0  0  0  0  0  0  0  0  0  0
    7.9777   -3.4623    0.0000 C   0  0  0  0  0  0  0  0  0  0  0  0
  1  2  2  0  0  0  0 
  1  3  1  0  0  0  0 
  1  4  1  0  0  0  0 
  3  5  1  0  0  0  0 
  5  6  1  0  0  0  0 
  6  7  1  0  0  0  0 
  6  8  1  0  0  0  0 
  7  9  1  0  0  0  0 
  8 10  1  0  0  0  0 
  9 11  1  0  0  0  0 
 11 12  1  0  0  0  0 
M  END
> <Name>
2-Ethylhexyl Chloroformate

> <Source>
DSSTox2DMolFile

> <Tox>
-0.775

> <CAS>
24468-13-1

$$$$

  CDK

 15 16  0  0  0  0  0  0  0  0999 V2000
    1.4241   -0.8429    0.0000 C   0  0  0  0  0  0  0  0  0  0  0  0
    2.1386   -0.4304    0.0000 C   0  0  0  0  0  0  0  0  0  0  0  0
    0.7097   -0.4304    0.0000 C   0  0  0  0  0  0  0  0  0  0  0  0
    2.8531   -0.8429    0.0000 Cl  0  0  0  0  0  0  0  0  0  0  0  0
    2.1386    0.3946    0.0000 C   0  0  0  0  0  0  0  0  0  0  0  0
    0.7097    0.3946    0.0000 C   0  0  0  0  0  0  0  0  0  0  0  0
   -0.0048   -0.8429    0.0000 O   0  0  0  0  0  0  0  0  0  0  0  0
    1.4241    0.8071    0.0000 C   0  0  0  0  0  0  0  0  0  0  0  0
   -0.7193   -0.4304    0.0000 C   0  0  0  0  0  0  0  0  0  0  0  0
    1.4241    1.6321    0.0000 Cl  0  0  0  0  0  0  0  0  0  0  0  0
   -0.7193    0.3946    0.0000 C   0  0  0  0  0  0  0  0  0  0  0  0
   -1.4337   -0.8429    0.0000 C   0  0  0  0  0  0  0  0  0  0  0  0
   -1.4337    0.8071    0.0000 C   0  0  0  0  0  0  0  0  0  0  0  0
   -2.1482   -0.4304    0.0000 C   0  0  0  0  0  0  0  0  0  0  0  0
   -2.1482    0.3946    0.0000 C   0  0  0  0  0  0  0  0  0  0  0  0
  1  2  1  0  0  0  0 
  1  3  2  0  0  0  0 
  2  4  1  0  0  0  0 
  2  5  2  0  0  0  0 
  6  3  1  0  0  0  0 
  3  7  1  0  0  0  0 
  5  8  1  0  0  0  0 
  8  6  2  0  0  0  0 
  7  9  1  0  0  0  0 
  8 10  1  0  0  0  0 
  9 11  1  0  0  0  0 
  9 12  2  0  0  0  0 
 11 13  2  0  0  0  0 
 14 12  1  0  0  0  0 
 13 15  1  0  0  0  0 
 15 14  2  0  0  0  0 
M  END
> <Name>
3,5-Dichlorodiphenyl ether

> <Source>
Smiles

> <Tox>
-3.000

> <CAS>
24910-68-7

$$$$

  CDK

  8  7  0  0  0  0  0  0  0  0999 V2000
   -0.9128   -0.1586    0.9078 C   0  0  0  0  0  0  0  0  0  0  0  0
   -2.3420   -0.0162    0.3526 C   0  0  0  0  0  0  0  0  0  0  0  0
    0.1749   -0.0046   -0.1595 C   0  0  0  0  0  0  0  0  0  0  0  0
   -2.5646    1.3230   -0.3516 C   0  0  0  0  0  0  0  0  0  0  0  0
   -2.6389   -1.1639   -0.6160 C   0  0  0  0  0  0  0  0  0  0  0  0
    1.5728   -0.0834    0.4588 C   0  0  0  0  0  0  0  0  0  0  0  0
    2.6601    0.1076   -0.5984 C   0  0  0  0  0  0  0  0  0  0  0  0
    4.0506   -0.0039    0.0062 C   0  0  0  0  0  0  0  0  0  0  0  0
  1  2  1  0  0  0  0 
  1  3  1  0  0  0  0 
  2  4  1  0  0  0  0 
  2  5  1  0  0  0  0 
  3  6  1  0  0  0  0 
  6  7  1  0  0  0  0 
  7  8  1  0  0  0  0 
M  END
> <Name>
ISOOCTANE

> <Source>
Chemidplus3DMolFile

> <Tox>
1.712

> <CAS>
26635-64-3

$$$$

  CDK

  8  8  0  0  0  0  0  0  0  0999 V2000
    2.2486   -1.5429    0.0004 Br  0  0  0  0  0  0  0  0  0  0  0  0
    0.5742   -0.6440    0.0000 C   0  0  0  0  0  0  0  0  0  0  0  0
    0.4683    0.7470    0.0004 C   0  0  0  0  0  0  0  0  0  0  0  0
   -0.5775   -1.4310   -0.0004 C   0  0  0  0  0  0  0  0  0  0  0  0
    1.8516    1.7843   -0.0008 Cl  0  0  0  0  0  0  0  0  0  0  0  0
   -0.7893    1.3506    0.0005 C   0  0  0  0  0  0  0  0  0  0  0  0
   -1.8350   -0.8274   -0.0004 C   0  0  0  0  0  0  0  0  0  0  0  0
   -1.9408    0.5634    0.0001 C   0  0  0  0  0  0  0  0  0  0  0  0
  1  2  1  0  0  0  0 
  2  3  1  0  0  0  0 
  2  4  2  0  0  0  0 
  5  3  1  0  0  0  0 
  3  6  2  0  0  0  0 
  4  7  1  0  0  0  0 
  6  8  1  0  0  0  0 
  7  8  2  0  0  0  0 
M  END
> <Name>
BROMOCHLOROBENZENE

> <Source>
Chemidplus3DMolFile

> <Tox>
-0.202

> <CAS>
28906-38-9

$$$$

  CDK

 22 22  0  0  0  0  0  0  0  0999 V2000
    1.1788    1.1262    0.0365 C   0  0  0  0  0  0  0  0  0  0  0  0
   -0.2419    1.1056    0.0090 C   0  0  0  0  0  0  0  0  0  0  0  0
    1.8658   -0.1176    0.0635 C   0  0  0  0  0  0  0  0  0  0  0  0
    1.8684    2.3195    0.0308 N   0  0  0  0  0  0  0  0  0  0  0  0
   -0.9595   -0.1006    0.0518 C   0  0  0  0  0  0  0  0  0  0  0  0
   -1.0110    2.4036   -0.0959 N   0  0  0  0  0  0  0  0  0  0  0  0
    1.1508   -1.3015    0.0852 C   0  0  0  0  0  0  0  0  0  0  0  0
    3.3945   -0.1787    0.0649 C   0  0  0  0  0  0  0  0  0  0  0  0
   -0.2497   -1.3144    0.1036 C   0  0  0  0  0  0  0  0  0  0  0  0
   -2.4095    0.0519    0.0014 N   0  0  0  0  0  0  0  0  0  0  0  0
   -1.2267    2.8652   -1.1946 O   0  0  0  0  0  0  0  0  0  0  0  0
   -1.3135    2.9850    0.9239 O   0  0  0  0  0  0  0  0  0  0  0  0
    3.9291   -1.4186    0.0832 F   0  0  0  0  0  0  0  0  0  0  0  0
    3.9650    0.4120   -1.0124 F   0  0  0  0  0  0  0  0  0  0  0  0
    3.9628    0.4406    1.1278 F   0  0  0  0  0  0  0  0  0  0  0  0
   -0.8935   -2.6687    0.1842 N   0  0  0  0  0  0  0  0  0  0  0  0
   -3.1434   -0.6708   -1.0785 C   0  0  0  0  0  0  0  0  0  0  0  0
   -3.0826   -0.0212    1.3408 C   0  0  0  0  0  0  0  0  0  0  0  0
   -0.5772   -3.5104   -0.6296 O   0  0  0  0  0  0  0  0  0  0  0  0
   -1.6868   -2.9025    1.0722 O   0  0  0  0  0  0  0  0  0  0  0  0
   -2.6270   -0.3305   -2.4600 C   0  0  0  0  0  0  0  0  0  0  0  0
   -4.3770    0.7696    1.3147 C   0  0  0  0  0  0  0  0  0  0  0  0
  1  2  1  0  0  0  0 
  1  3  2  0  0  0  0 
  1  4  1  0  0  0  0 
  2  5  2  0  0  0  0 
  2  6  1  0  0  0  0 
  7  3  1  0  0  0  0 
  3  8  1  0  0  0  0 
  5  9  1  0  0  0  0 
  5 10  1  0  0  0  0 
  6 11  2  0  0  0  0 
  6 12  1  0  0  0  0 
  9  7  2  0  0  0  0 
  8 13  1  0  0  0  0 
  8 14  1  0  0  0  0 
  8 15  1  0  0  0  0 
  9 16  1  0  0  0  0 
 10 17  1  0  0  0  0 
 10 18  1  0  0  0  0 
 16 19  2  0  0  0  0 
 16 20  1  0  0  0  0 
 17 21  1  0  0  0  0 
 18 22  1  0  0  0  0 
M  CHG  1   6   1
M  CHG  1  12  -1
M  CHG  1  16   1
M  CHG  1  20  -1
M  END
> <Name>
DINITRAMINE

> <Source>
DougDB3DMolFile

> <Tox>
-5.444

> <CAS>
29091-05-2

$$$$

  CDK

  8  7  0  0  0  0  0  0  0  0999 V2000
   -2.1686   -1.0901    0.2555 F   0  0  0  0  0  0  0  0  0  0  0  0
   -1.8011    0.0001   -0.4612 C   0  0  0  0  0  0  0  0  0  0  0  0
   -2.1691    1.0899    0.2556 F   0  0  0  0  0  0  0  0  0  0  0  0
   -0.3044    0.0001   -0.6669 C   0  0  0  0  0  0  0  0  0  0  0  0
    0.3535    0.0000    0.5941 O   0  0  0  0  0  0  0  0  0  0  0  0
    1.7673    0.0001    0.4693 C   0  0  0  0  0  0  0  0  0  0  0  0
    2.1614    1.0954   -0.2232 F   0  0  0  0  0  0  0  0  0  0  0  0
    2.1611   -1.0954   -0.2232 F   0  0  0  0  0  0  0  0  0  0  0  0
  1  2  1  0  0  0  0 
  3  2  1  0  0  0  0 
  4  2  1  0  0  0  0 
  5  4  1  0  0  0  0 
  5  6  1  0  0  0  0 
  7  6  1  0  0  0  0 
  8  6  1  0  0  0  0 
M  END
> <Name>
2-(DIFLUOROMETHOXY)-1,1-DIFLUOROETHANE

> <Source>
Chemidplus3DMolFile

> <Tox>
2.356

> <CAS>
32778-16-8

$$$$

  CDK

 18 20  0  0  0  0  0  0  0  0999 V2000
    6.6717   -2.3171    0.0000 C   0  0  0  0  0  0  0  0  0  0  0  0
    5.8887   -1.2704    0.0000 C   0  0  0  0  0  0  0  0  0  0  0  0
    5.8887   -3.4198    0.0000 C   0  0  0  0  0  0  0  0  0  0  0  0
    7.1431   -1.0467    0.0000 C   0  0  0  0  0  0  0  0  0  0  0  0
    7.9901   -2.3331    0.0000 C   0  0  0  0  0  0  0  0  0  0  0  0
    4.6343   -1.6699    0.0000 C   0  0  0  0  0  0  0  0  0  0  0  0
    6.2882   -0.0000    0.0000 C   0  0  0  0  0  0  0  0  0  0  0  0
    4.6343   -3.0043    0.0000 N   0  0  0  0  0  0  0  0  0  0  0  0
    6.2882   -4.6902    0.0000 O   0  0  0  0  0  0  0  0  0  0  0  0
    3.5476   -0.8709    0.0000 O   0  0  0  0  0  0  0  0  0  0  0  0
    3.4837   -3.6754    0.0000 C   0  0  0  0  0  0  0  0  0  0  0  0
    3.4837   -5.0098    0.0000 C   0  0  0  0  0  0  0  0  0  0  0  0
    2.3251   -3.0043    0.0000 C   0  0  0  0  0  0  0  0  0  0  0  0
    2.3251   -5.6650    0.0000 C   0  0  0  0  0  0  0  0  0  0  0  0
    1.1905   -3.6754    0.0000 C   0  0  0  0  0  0  0  0  0  0  0  0
    2.3251   -6.9993    0.0000 Cl  0  0  0  0  0  0  0  0  0  0  0  0
    1.1905   -5.0098    0.0000 C   0  0  0  0  0  0  0  0  0  0  0  0
    0.0000   -2.9883    0.0000 Cl  0  0  0  0  0  0  0  0  0  0  0  0
  1  2  1  0  0  0  0 
  1  3  1  0  0  0  0 
  1  4  1  0  0  0  0 
  1  5  1  0  0  0  0 
  2  6  1  0  0  0  0 
  2  7  1  0  0  0  0 
  2  4  1  0  0  0  0 
  8  3  1  0  0  0  0 
  3  9  2  0  0  0  0 
  8  6  1  0  0  0  0 
  6 10  2  0  0  0  0 
  8 11  1  0  0  0  0 
 11 12  2  0  0  0  0 
 11 13  1  0  0  0  0 
 12 14  1  0  0  0  0 
 13 15  2  0  0  0  0 
 14 16  1  0  0  0  0 
 14 17  2  0  0  0  0 
 15 17  1  0  0  0  0 
 15 18  1  0  0  0  0 
M  END
> <Name>
PROCYMIDONE

> <Source>
DSSTox2DMolFile

> <Tox>
-3.854

> <CAS>
32809-16-8

$$$$

  CDK

 20 21  0  0  0  0  0  0  0  0999 V2000
    0.4185    1.4632    0.9409 O   0  0  0  0  0  0  0  0  0  0  0  0
   -0.8256    0.9313    0.6746 C   0  0  0  0  0  0  0  0  0  0  0  0
    1.5228    0.6588    0.6707 C   0  0  0  0  0  0  0  0  0  0  0  0
   -1.0515   -0.2855    0.0295 C   0  0  0  0  0  0  0  0  0  0  0  0
   -1.8919    1.7444    1.0973 C   0  0  0  0  0  0  0  0  0  0  0  0
    2.3869    1.0520   -0.3609 C   0  0  0  0  0  0  0  0  0  0  0  0
    1.8403   -0.4257    1.4968 C   0  0  0  0  0  0  0  0  0  0  0  0
   -2.3718   -0.6904   -0.2027 C   0  0  0  0  0  0  0  0  0  0  0  0
   -3.1905    1.3305    0.8607 C   0  0  0  0  0  0  0  0  0  0  0  0
    3.5741    0.3517   -0.5671 C   0  0  0  0  0  0  0  0  0  0  0  0
    2.0244    2.3608   -1.3462 Cl  0  0  0  0  0  0  0  0  0  0  0  0
    3.0232   -1.1208    1.2827 C   0  0  0  0  0  0  0  0  0  0  0  0
   -3.4481    0.1206    0.2061 C   0  0  0  0  0  0  0  0  0  0  0  0
   -2.7316   -1.8722   -0.8016 O   0  0  0  0  0  0  0  0  0  0  0  0
    3.8803   -0.7294    0.2540 C   0  0  0  0  0  0  0  0  0  0  0  0
   -4.8745   -0.2771   -0.0436 N   0  0  0  0  0  0  0  0  0  0  0  0
   -1.7122   -2.6851   -1.3330 C   0  0  0  0  0  0  0  0  0  0  0  0
    5.3122   -1.5767    0.0036 Cl  0  0  0  0  0  0  0  0  0  0  0  0
   -5.5387   -0.6819    0.8875 O   0  0  0  0  0  0  0  0  0  0  0  0
   -5.3361   -0.1510   -1.1572 O   0  0  0  0  0  0  0  0  0  0  0  0
  1  2  1  0  0  0  0 
  1  3  1  0  0  0  0 
  2  4  1  0  0  0  0 
  2  5  2  0  0  0  0 
  3  6  1  0  0  0  0 
  3  7  2  0  0  0  0 
  4  8  2  0  0  0  0 
  9  5  1  0  0  0  0 
  6 10  2  0  0  0  0 
  6 11  1  0  0  0  0 
 12  7  1  0  0  0  0 
  8 13  1  0  0  0  0 
  8 14  1  0  0  0  0 
 13  9  2  0  0  0  0 
 10 15  1  0  0  0  0 
 15 12  2  0  0  0  0 
 13 16  1  0  0  0  0 
 14 17  1  0  0  0  0 
 15 18  1  0  0  0  0 
 16 19  2  0  0  0  0 
 16 20  1  0  0  0  0 
M  CHG  1  16   1
M  CHG  1  20  -1
M  END
> <Name>
CHLOMETHOXYNIL

> <Source>
DougDB3DMolFile

> <Tox>
-4.854

> <CAS>
32861-85-1

$$$$

  CDK

 18 20  0  0  0  0  0  0  0  0999 V2000
    4.3356    1.4950    0.0000 C   0  0  0  0  0  0  0  0  0  0  0  0
    4.3356    2.4917    0.0000 C   0  0  0  0  0  0  0  0  0  0  0  0
    5.1827    0.9967    0.0000 C   0  0  0  0  0  0  0  0  0  0  0  0
    3.4884    0.9967    0.0000 O   0  0  0  0  0  0  0  0  0  0  0  0
    3.4884    2.9900    0.0000 O   0  0  0  0  0  0  0  0  0  0  0  0
    5.1827    2.9900    0.0000 C   0  0  0  0  0  0  0  0  0  0  0  0
    6.0798    1.4950    0.0000 C   0  0  0  0  0  0  0  0  0  0  0  0
    2.6412    1.4950    0.0000 C   0  0  0  0  0  0  0  0  0  0  0  0
    2.6412    2.4917    0.0000 C   0  0  0  0  0  0  0  0  0  0  0  0
    6.0798    2.4917    0.0000 C   0  0  0  0  0  0  0  0  0  0  0  0
    5.1827    3.9867    0.0000 Cl  0  0  0  0  0  0  0  0  0  0  0  0
    6.9269    0.9967    0.0000 Cl  0  0  0  0  0  0  0  0  0  0  0  0
    1.7442    0.9967    0.0000 C   0  0  0  0  0  0  0  0  0  0  0  0
    1.7442    2.9900    0.0000 C   0  0  0  0  0  0  0  0  0  0  0  0
    0.8472    1.4950    0.0000 C   0  0  0  0  0  0  0  0  0  0  0  0
    1.7442    0.0000    0.0000 Cl  0  0  0  0  0  0  0  0  0  0  0  0
    0.8472    2.4917    0.0000 C   0  0  0  0  0  0  0  0  0  0  0  0
    0.0000    2.9900    0.0000 Cl  0  0  0  0  0  0  0  0  0  0  0  0
  2  1  2  0  0  0  0 
  3  1  1  0  0  0  0 
  1  4  1  0  0  0  0 
  5  2  1  0  0  0  0 
  2  6  1  0  0  0  0 
  7  3  2  0  0  0  0 
  4  8  1  0  0  0  0 
  9  5  1  0  0  0  0 
  6 10  2  0  0  0  0 
  6 11  1  0  0  0  0 
 10  7  1  0  0  0  0 
  7 12  1  0  0  0  0 
  8 13  2  0  0  0  0 
  9  8  1  0  0  0  0 
 14  9  2  0  0  0  0 
 13 15  1  0  0  0  0 
 13 16  1  0  0  0  0 
 17 14  1  0  0  0  0 
 15 17  2  0  0  0  0 
 17 18  1  0  0  0  0 
M  END
> <Name>
1,3,6,8-TETRACHLORODIBENZO-P-DIOXIN

> <Source>
NIST2DMolFile

> <Tox>
-8.280

> <CAS>
33423-92-6

$$$$

  CDK

 18 19  0  0  0  0  0  0  0  0999 V2000
    3.9984    0.0000    0.0000 Cl  0  0  0  0  0  0  0  0  0  0  0  0
    4.4982    0.8996    0.0000 C   0  0  0  0  0  0  0  0  0  0  0  0
    3.9984    1.7493    0.0000 C   0  0  0  0  0  0  0  0  0  0  0  0
    5.4978    0.8996    0.0000 C   0  0  0  0  0  0  0  0  0  0  0  0
    4.4982    2.5990    0.0000 C   0  0  0  0  0  0  0  0  0  0  0  0
    2.9988    1.7493    0.0000 C   0  0  0  0  0  0  0  0  0  0  0  0
    5.9976    1.7493    0.0000 C   0  0  0  0  0  0  0  0  0  0  0  0
    3.9984    3.4986    0.0000 Cl  0  0  0  0  0  0  0  0  0  0  0  0
    5.4978    2.5990    0.0000 C   0  0  0  0  0  0  0  0  0  0  0  0
    2.4990    0.8996    0.0000 C   0  0  0  0  0  0  0  0  0  0  0  0
    2.4990    2.5990    0.0000 C   0  0  0  0  0  0  0  0  0  0  0  0
    6.9972    1.7493    0.0000 Cl  0  0  0  0  0  0  0  0  0  0  0  0
    2.9988    0.0000    0.0000 Cl  0  0  0  0  0  0  0  0  0  0  0  0
    1.4994    0.8996    0.0000 C   0  0  0  0  0  0  0  0  0  0  0  0
    2.9988    3.4986    0.0000 Cl  0  0  0  0  0  0  0  0  0  0  0  0
    1.4994    2.5990    0.0000 C   0  0  0  0  0  0  0  0  0  0  0  0
    0.9996    1.7493    0.0000 C   0  0  0  0  0  0  0  0  0  0  0  0
    0.0000    1.7493    0.0000 Cl  0  0  0  0  0  0  0  0  0  0  0  0
  1  2  1  0  0  0  0 
  3  2  2  0  0  0  0 
  2  4  1  0  0  0  0 
  5  3  1  0  0  0  0 
  3  6  1  0  0  0  0 
  4  7  2  0  0  0  0 
  5  8  1  0  0  0  0 
  9  5  2  0  0  0  0 
 10  6  2  0  0  0  0 
  6 11  1  0  0  0  0 
  7  9  1  0  0  0  0 
  7 12  1  0  0  0  0 
 10 13  1  0  0  0  0 
 14 10  1  0  0  0  0 
 11 15  1  0  0  0  0 
 11 16  2  0  0  0  0 
 17 14  2  0  0  0  0 
 16 17  1  0  0  0  0 
 17 18  1  0  0  0  0 
M  END
> <Name>
2,2',4,4',6,6'-PCB

> <Source>
NIST2DMolFile

> <Tox>
-4.921

> <CAS>
33979-03-2

$$$$

  CDK

 15 15  0  0  0  0  0  0  0  0999 V2000
    4.6985   -1.7384    0.0000 C   0  0  0  0  0  0  0  0  0  0  0  0
    3.6162   -0.9594    0.0000 S   0  0  0  0  0  0  0  0  0  0  0  0
    4.2803   -3.0012    0.0000 N   0  0  0  0  0  0  0  0  0  0  0  0
    5.9613   -1.3202    0.0000 N   0  0  0  0  0  0  0  0  0  0  0  0
    2.5420   -1.7466    0.0000 C   0  0  0  0  0  0  0  0  0  0  0  0
    2.9602   -3.0012    0.0000 N   0  0  0  0  0  0  0  0  0  0  0  0
    6.9617   -2.1812    0.0000 C   0  0  0  0  0  0  0  0  0  0  0  0
    6.2237   -0.0000    0.0000 C   0  0  0  0  0  0  0  0  0  0  0  0
    1.2628   -1.3284    0.0000 C   0  0  0  0  0  0  0  0  0  0  0  0
    8.1999   -1.7630    0.0000 O   0  0  0  0  0  0  0  0  0  0  0  0
    6.6829   -3.4850    0.0000 N   0  0  0  0  0  0  0  0  0  0  0  0
    0.8610   -2.6076    0.0000 C   0  0  0  0  0  0  0  0  0  0  0  0
    1.6810   -0.0492    0.0000 C   0  0  0  0  0  0  0  0  0  0  0  0
    0.0000   -0.9102    0.0000 C   0  0  0  0  0  0  0  0  0  0  0  0
    7.6669   -4.3541    0.0000 C   0  0  0  0  0  0  0  0  0  0  0  0
  1  2  1  0  0  0  0 
  1  3  2  0  0  0  0 
  1  4  1  0  0  0  0 
  2  5  1  0  0  0  0 
  3  6  1  0  0  0  0 
  4  7  1  0  0  0  0 
  4  8  1  0  0  0  0 
  5  9  1  0  0  0  0 
  5  6  2  0  0  0  0 
  7 10  2  0  0  0  0 
  7 11  1  0  0  0  0 
  9 12  1  0  0  0  0 
  9 13  1  0  0  0  0 
  9 14  1  0  0  0  0 
 11 15  1  0  0  0  0 
M  END
> <Name>
TEBUTHIURON

> <Source>
DSSTox2DMolFile

> <Tox>
-5.699

> <CAS>
34014-18-1

$$$$

  CDK

 21 23  0  0  0  0  0  0  0  0999 V2000
    5.2109    4.0083    0.0000 Cl  0  0  0  0  0  0  0  0  0  0  0  0
    5.2109    3.0063    0.0000 C   0  0  0  0  0  0  0  0  0  0  0  0
    4.3090    2.5052    0.0000 C   0  0  0  0  0  0  0  0  0  0  0  0
    6.0626    2.5052    0.0000 C   0  0  0  0  0  0  0  0  0  0  0  0
    4.3090    1.5031    0.0000 C   0  0  0  0  0  0  0  0  0  0  0  0
    3.4572    3.0063    0.0000 O   0  0  0  0  0  0  0  0  0  0  0  0
    6.9144    3.0063    0.0000 Cl  0  0  0  0  0  0  0  0  0  0  0  0
    6.0626    1.5031    0.0000 C   0  0  0  0  0  0  0  0  0  0  0  0
    3.4572    1.0021    0.0000 O   0  0  0  0  0  0  0  0  0  0  0  0
    5.2109    1.0021    0.0000 C   0  0  0  0  0  0  0  0  0  0  0  0
    2.6054    2.5052    0.0000 C   0  0  0  0  0  0  0  0  0  0  0  0
    6.9144    1.0021    0.0000 Cl  0  0  0  0  0  0  0  0  0  0  0  0
    2.6054    1.5031    0.0000 C   0  0  0  0  0  0  0  0  0  0  0  0
    5.2109    0.0000    0.0000 Cl  0  0  0  0  0  0  0  0  0  0  0  0
    1.7035    3.0063    0.0000 C   0  0  0  0  0  0  0  0  0  0  0  0
    1.7035    1.0021    0.0000 C   0  0  0  0  0  0  0  0  0  0  0  0
    1.7035    4.0083    0.0000 Cl  0  0  0  0  0  0  0  0  0  0  0  0
    0.8518    2.5052    0.0000 C   0  0  0  0  0  0  0  0  0  0  0  0
    0.8518    1.5031    0.0000 C   0  0  0  0  0  0  0  0  0  0  0  0
    0.0000    3.0063    0.0000 Cl  0  0  0  0  0  0  0  0  0  0  0  0
    0.0000    1.0021    0.0000 Cl  0  0  0  0  0  0  0  0  0  0  0  0
  1  2  1  0  0  0  0 
  3  2  2  0  0  0  0 
  2  4  1  0  0  0  0 
  3  5  1  0  0  0  0 
  6  3  1  0  0  0  0 
  4  7  1  0  0  0  0 
  4  8  2  0  0  0  0 
  5  9  1  0  0  0  0 
 10  5  2  0  0  0  0 
 11  6  1  0  0  0  0 
  8 10  1  0  0  0  0 
  8 12  1  0  0  0  0 
  9 13  1  0  0  0  0 
 10 14  1  0  0  0  0 
 11 13  2  0  0  0  0 
 15 11  1  0  0  0  0 
 13 16  1  0  0  0  0 
 15 17  1  0  0  0  0 
 18 15  2  0  0  0  0 
 16 19  2  0  0  0  0 
 19 18  1  0  0  0  0 
 18 20  1  0  0  0  0 
 19 21  1  0  0  0  0 
M  END
> <Name>
1,2,3,4,6,7,8-HEPTACHLORODIBENZO-P-DIOXIN

> <Source>
NIST2DMolFile

> <Tox>
-9.125

> <CAS>
35822-46-9

$$$$

  CDK

 19 21  0  0  0  0  0  0  0  0999 V2000
    3.6380    2.0988    0.0000 C   0  0  0  0  0  0  0  0  0  0  0  0
    3.6380    0.6996    0.0000 C   0  0  0  0  0  0  0  0  0  0  0  0
    4.8506    2.7984    0.0000 O   0  0  0  0  0  0  0  0  0  0  0  0
    2.4253    2.7984    0.0000 C   0  0  0  0  0  0  0  0  0  0  0  0
    4.8506    0.0000    0.0000 O   0  0  0  0  0  0  0  0  0  0  0  0
    2.4253    0.0000    0.0000 C   0  0  0  0  0  0  0  0  0  0  0  0
    6.0633    2.0988    0.0000 C   0  0  0  0  0  0  0  0  0  0  0  0
    1.2127    2.0988    0.0000 C   0  0  0  0  0  0  0  0  0  0  0  0
    6.0633    0.6996    0.0000 C   0  0  0  0  0  0  0  0  0  0  0  0
    1.2127    0.6996    0.0000 C   0  0  0  0  0  0  0  0  0  0  0  0
    7.2760    2.7984    0.0000 C   0  0  0  0  0  0  0  0  0  0  0  0
    0.0000    2.7984    0.0000 Cl  0  0  0  0  0  0  0  0  0  0  0  0
    7.2760    0.0000    0.0000 C   0  0  0  0  0  0  0  0  0  0  0  0
    0.0000    0.0000    0.0000 Cl  0  0  0  0  0  0  0  0  0  0  0  0
    8.4886    2.0988    0.0000 C   0  0  0  0  0  0  0  0  0  0  0  0
    7.2760    4.1977    0.0000 Cl  0  0  0  0  0  0  0  0  0  0  0  0
    8.4886    0.6996    0.0000 C   0  0  0  0  0  0  0  0  0  0  0  0
    9.7013    2.7984    0.0000 Cl  0  0  0  0  0  0  0  0  0  0  0  0
    9.7013    0.0000    0.0000 Cl  0  0  0  0  0  0  0  0  0  0  0  0
  1  2  2  0  0  0  0 
  1  3  1  0  0  0  0 
  1  4  1  0  0  0  0 
  2  5  1  0  0  0  0 
  2  6  1  0  0  0  0 
  7  3  1  0  0  0  0 
  4  8  2  0  0  0  0 
  5  9  1  0  0  0  0 
 10  6  2  0  0  0  0 
  9  7  2  0  0  0  0 
  7 11  1  0  0  0  0 
  8 10  1  0  0  0  0 
  8 12  1  0  0  0  0 
  9 13  1  0  0  0  0 
 10 14  1  0  0  0  0 
 15 11  2  0  0  0  0 
 11 16  1  0  0  0  0 
 13 17  2  0  0  0  0 
 17 15  1  0  0  0  0 
 15 18  1  0  0  0  0 
 17 19  1  0  0  0  0 
M  END
> <Name>
PENTACHLORODIBENZO-P-DIOXIN

> <Source>
IndexNet2DMolFile

> <Tox>
-9.252

> <CAS>
36088-22-9

$$$$

  CDK

  9  8  0  0  0  0  0  0  0  0999 V2000
   -0.0370   -1.5799    0.4423 F   0  0  0  0  0  0  0  0  0  0  0  0
    0.1034   -0.2790    0.0903 C   0  0  0  0  0  0  0  0  0  0  0  0
   -0.1327   -0.1780   -1.2387 F   0  0  0  0  0  0  0  0  0  0  0  0
   -0.8433    0.5020    0.8079 O   0  0  0  0  0  0  0  0  0  0  0  0
    1.5024    0.1809    0.4019 C   0  0  0  0  0  0  0  0  0  0  0  0
   -2.1861    0.1160    0.5560 C   0  0  0  0  0  0  0  0  0  0  0  0
    1.6548    1.4723    0.0176 F   0  0  0  0  0  0  0  0  0  0  0  0
    2.3898   -0.5493   -0.3170 F   0  0  0  0  0  0  0  0  0  0  0  0
   -2.4513    0.3148   -0.7605 F   0  0  0  0  0  0  0  0  0  0  0  0
  1  2  1  0  0  0  0 
  3  2  1  0  0  0  0 
  4  2  1  0  0  0  0 
  2  5  1  0  0  0  0 
  4  6  1  0  0  0  0 
  7  5  1  0  0  0  0 
  8  5  1  0  0  0  0 
  9  6  1  0  0  0  0 
M  END
> <Name>
1,1,2,2-Tetrafluoro-1-fluoromethoxyethane

> <Source>
Chemidplus3DMolFile

> <Tox>
2.373

> <CAS>
37031-31-5

$$$$

  CDK

 21 23  0  0  0  0  0  0  0  0999 V2000
    3.6380    3.4981    0.0000 C   0  0  0  0  0  0  0  0  0  0  0  0
    3.6380    2.0988    0.0000 C   0  0  0  0  0  0  0  0  0  0  0  0
    4.8506    4.1977    0.0000 O   0  0  0  0  0  0  0  0  0  0  0  0
    2.4253    4.1977    0.0000 C   0  0  0  0  0  0  0  0  0  0  0  0
    4.8506    1.3992    0.0000 O   0  0  0  0  0  0  0  0  0  0  0  0
    2.4253    1.3992    0.0000 C   0  0  0  0  0  0  0  0  0  0  0  0
    6.0633    3.4981    0.0000 C   0  0  0  0  0  0  0  0  0  0  0  0
    1.2127    3.4981    0.0000 C   0  0  0  0  0  0  0  0  0  0  0  0
    6.0633    2.0988    0.0000 C   0  0  0  0  0  0  0  0  0  0  0  0
    1.2127    2.0988    0.0000 C   0  0  0  0  0  0  0  0  0  0  0  0
    2.4253    0.0000    0.0000 Cl  0  0  0  0  0  0  0  0  0  0  0  0
    7.2760    4.1977    0.0000 C   0  0  0  0  0  0  0  0  0  0  0  0
    0.0000    4.1977    0.0000 Cl  0  0  0  0  0  0  0  0  0  0  0  0
    7.2760    1.3992    0.0000 C   0  0  0  0  0  0  0  0  0  0  0  0
    0.0000    1.3992    0.0000 Cl  0  0  0  0  0  0  0  0  0  0  0  0
    8.4886    3.4981    0.0000 C   0  0  0  0  0  0  0  0  0  0  0  0
    7.2760    5.5969    0.0000 Cl  0  0  0  0  0  0  0  0  0  0  0  0
    8.4886    2.0988    0.0000 C   0  0  0  0  0  0  0  0  0  0  0  0
    7.2760    0.0000    0.0000 Cl  0  0  0  0  0  0  0  0  0  0  0  0
    9.7013    4.1977    0.0000 Cl  0  0  0  0  0  0  0  0  0  0  0  0
    9.7013    1.3992    0.0000 Cl  0  0  0  0  0  0  0  0  0  0  0  0
  1  2  2  0  0  0  0 
  1  3  1  0  0  0  0 
  1  4  1  0  0  0  0 
  2  5  1  0  0  0  0 
  2  6  1  0  0  0  0 
  7  3  1  0  0  0  0 
  4  8  2  0  0  0  0 
  5  9  1  0  0  0  0 
 10  6  2  0  0  0  0 
  6 11  1  0  0  0  0 
  9  7  2  0  0  0  0 
  7 12  1  0  0  0  0 
  8 10  1  0  0  0  0 
  8 13  1  0  0  0  0 
  9 14  1  0  0  0  0 
 10 15  1  0  0  0  0 
 16 12  2  0  0  0  0 
 12 17  1  0  0  0  0 
 14 18  2  0  0  0  0 
 14 19  1  0  0  0  0 
 18 16  1  0  0  0  0 
 16 20  1  0  0  0  0 
 18 21  1  0  0  0  0 
M  END
> <Name>
HEPTACHLORODIBENZO-P-DIOXIN

> <Source>
IndexNet2DMolFile

> <Tox>
-11.252

> <CAS>
37871-00-4

$$$$

  CDK

 18 19  0  0  0  0  0  0  0  0999 V2000
    3.0424    0.8620    0.0000 C   0  0  0  0  0  0  0  0  0  0  0  0
    2.5354    0.0000    0.0000 C   0  0  0  0  0  0  0  0  0  0  0  0
    2.5354    1.7240    0.0000 C   0  0  0  0  0  0  0  0  0  0  0  0
    4.0059    0.8620    0.0000 C   0  0  0  0  0  0  0  0  0  0  0  0
    1.5212    0.0000    0.0000 C   0  0  0  0  0  0  0  0  0  0  0  0
    1.5212    1.7240    0.0000 C   0  0  0  0  0  0  0  0  0  0  0  0
    3.0424    2.5861    0.0000 Cl  0  0  0  0  0  0  0  0  0  0  0  0
    4.5129    1.7240    0.0000 C   0  0  0  0  0  0  0  0  0  0  0  0
    4.5129    0.0000    0.0000 C   0  0  0  0  0  0  0  0  0  0  0  0
    1.0141    0.8620    0.0000 C   0  0  0  0  0  0  0  0  0  0  0  0
    1.0141    2.5861    0.0000 Cl  0  0  0  0  0  0  0  0  0  0  0  0
    5.5271    1.7240    0.0000 C   0  0  0  0  0  0  0  0  0  0  0  0
    4.0059    2.5861    0.0000 Cl  0  0  0  0  0  0  0  0  0  0  0  0
    5.5271    0.0000    0.0000 C   0  0  0  0  0  0  0  0  0  0  0  0
    0.0000    0.8620    0.0000 Cl  0  0  0  0  0  0  0  0  0  0  0  0
    5.9834    0.8620    0.0000 C   0  0  0  0  0  0  0  0  0  0  0  0
    6.0341    2.5861    0.0000 Cl  0  0  0  0  0  0  0  0  0  0  0  0
    6.9976    0.8620    0.0000 Cl  0  0  0  0  0  0  0  0  0  0  0  0
  2  1  2  0  0  0  0 
  1  3  1  0  0  0  0 
  1  4  1  0  0  0  0 
  5  2  1  0  0  0  0 
  3  6  2  0  0  0  0 
  3  7  1  0  0  0  0 
  8  4  2  0  0  0  0 
  4  9  1  0  0  0  0 
 10  5  2  0  0  0  0 
  6 10  1  0  0  0  0 
  6 11  1  0  0  0  0 
 12  8  1  0  0  0  0 
  8 13  1  0  0  0  0 
  9 14  2  0  0  0  0 
 10 15  1  0  0  0  0 
 16 12  2  0  0  0  0 
 12 17  1  0  0  0  0 
 14 16  1  0  0  0  0 
 16 18  1  0  0  0  0 
M  END
> <Name>
2,2',3,3',4,4'-HEXACHLOROBIPHENYL

> <Source>
NIST2DMolFile

> <Tox>
-5.592

> <CAS>
38380-07-3

$$$$

  CDK

 16 17  0  0  0  0  0  0  0  0999 V2000
    2.8451    1.2127    0.0000 C   0  0  0  0  0  0  0  0  0  0  0  0
    4.2443    1.2127    0.0000 C   0  0  0  0  0  0  0  0  0  0  0  0
    2.1455    2.4253    0.0000 C   0  0  0  0  0  0  0  0  0  0  0  0
    2.1455    0.0000    0.0000 C   0  0  0  0  0  0  0  0  0  0  0  0
    4.9439    0.0000    0.0000 C   0  0  0  0  0  0  0  0  0  0  0  0
    4.9439    2.4253    0.0000 C   0  0  0  0  0  0  0  0  0  0  0  0
    0.6996    2.4253    0.0000 C   0  0  0  0  0  0  0  0  0  0  0  0
    2.8451    3.6380    0.0000 Cl  0  0  0  0  0  0  0  0  0  0  0  0
    0.6996    0.0000    0.0000 C   0  0  0  0  0  0  0  0  0  0  0  0
    6.3431    0.0000    0.0000 C   0  0  0  0  0  0  0  0  0  0  0  0
    6.3431    2.4253    0.0000 C   0  0  0  0  0  0  0  0  0  0  0  0
    4.2443    3.6380    0.0000 Cl  0  0  0  0  0  0  0  0  0  0  0  0
    0.0000    1.2127    0.0000 C   0  0  0  0  0  0  0  0  0  0  0  0
    0.0000    3.6380    0.0000 Cl  0  0  0  0  0  0  0  0  0  0  0  0
    7.0428    1.2127    0.0000 C   0  0  0  0  0  0  0  0  0  0  0  0
    7.0428    3.6380    0.0000 Cl  0  0  0  0  0  0  0  0  0  0  0  0
  1  2  1  0  0  0  0 
  1  3  2  0  0  0  0 
  1  4  1  0  0  0  0 
  2  5  2  0  0  0  0 
  2  6  1  0  0  0  0 
  3  7  1  0  0  0  0 
  3  8  1  0  0  0  0 
  9  4  2  0  0  0  0 
  5 10  1  0  0  0  0 
 11  6  2  0  0  0  0 
  6 12  1  0  0  0  0 
  7 13  2  0  0  0  0 
  7 14  1  0  0  0  0 
 13  9  1  0  0  0  0 
 10 15  2  0  0  0  0 
 15 11  1  0  0  0  0 
 11 16  1  0  0  0  0 
M  END
> <Name>
2,2',3,3'-TETRACHLOROBIPHENYL

> <Source>
IndexNet2DMolFile

> <Tox>
-4.134

> <CAS>
38444-93-8

$$$$

  CDK

 15 17  0  0  0  0  0  0  0  0999 V2000
    6.0867    1.9957    0.0000 Cl  0  0  0  0  0  0  0  0  0  0  0  0
    5.1887    1.4967    0.0000 C   0  0  0  0  0  0  0  0  0  0  0  0
    4.3405    1.9957    0.0000 C   0  0  0  0  0  0  0  0  0  0  0  0
    5.1887    0.4989    0.0000 C   0  0  0  0  0  0  0  0  0  0  0  0
    3.4924    1.4967    0.0000 C   0  0  0  0  0  0  0  0  0  0  0  0
    4.3405    0.0000    0.0000 C   0  0  0  0  0  0  0  0  0  0  0  0
    3.4924    0.4989    0.0000 C   0  0  0  0  0  0  0  0  0  0  0  0
    2.5943    1.9957    0.0000 O   0  0  0  0  0  0  0  0  0  0  0  0
    2.5943    0.0000    0.0000 O   0  0  0  0  0  0  0  0  0  0  0  0
    1.7462    1.4967    0.0000 C   0  0  0  0  0  0  0  0  0  0  0  0
    1.7462    0.4989    0.0000 C   0  0  0  0  0  0  0  0  0  0  0  0
    0.8980    1.9957    0.0000 C   0  0  0  0  0  0  0  0  0  0  0  0
    0.8980    0.0000    0.0000 C   0  0  0  0  0  0  0  0  0  0  0  0
    0.0000    1.4967    0.0000 C   0  0  0  0  0  0  0  0  0  0  0  0
    0.0000    0.4989    0.0000 C   0  0  0  0  0  0  0  0  0  0  0  0
  1  2  1  0  0  0  0 
  3  2  2  0  0  0  0 
  2  4  1  0  0  0  0 
  5  3  1  0  0  0  0 
  4  6  2  0  0  0  0 
  5  7  2  0  0  0  0 
  8  5  1  0  0  0  0 
  6  7  1  0  0  0  0 
  7  9  1  0  0  0  0 
 10  8  1  0  0  0  0 
  9 11  1  0  0  0  0 
 10 11  2  0  0  0  0 
 12 10  1  0  0  0  0 
 11 13  1  0  0  0  0 
 14 12  2  0  0  0  0 
 13 15  2  0  0  0  0 
 15 14  1  0  0  0  0 
M  END
> <Name>
2-CHLORODIBENZO-P-DIOXIN

> <Source>
NIST2DMolFile

> <Tox>
-4.893

> <CAS>
39227-54-8

$$$$

  CDK

 22 21  0  0  0  0  0  0  0  0999 V2000
   12.7813   -1.3497    0.0000 C   0  0  0  0  0  0  0  0  0  0  0  0
   11.6105   -2.0164    0.0000 C   0  0  0  0  0  0  0  0  0  0  0  0
   12.7813   -0.0488    0.0000 O   0  0  0  0  0  0  0  0  0  0  0  0
   13.9196   -2.0164    0.0000 O   0  0  0  0  0  0  0  0  0  0  0  0
   10.4072   -1.4147    0.0000 C   0  0  0  0  0  0  0  0  0  0  0  0
   15.1230   -1.3497    0.0000 C   0  0  0  0  0  0  0  0  0  0  0  0
    9.2689   -2.0164    0.0000 C   0  0  0  0  0  0  0  0  0  0  0  0
   10.4072   -0.0488    0.0000 C   0  0  0  0  0  0  0  0  0  0  0  0
   16.2612   -2.0164    0.0000 C   0  0  0  0  0  0  0  0  0  0  0  0
   15.1230   -0.0000    0.0000 C   0  0  0  0  0  0  0  0  0  0  0  0
    8.0656   -1.4147    0.0000 C   0  0  0  0  0  0  0  0  0  0  0  0
    6.9110   -2.0164    0.0000 C   0  0  0  0  0  0  0  0  0  0  0  0
    5.7077   -1.4147    0.0000 C   0  0  0  0  0  0  0  0  0  0  0  0
    4.5694   -2.0164    0.0000 C   0  0  0  0  0  0  0  0  0  0  0  0
    5.7077   -0.0488    0.0000 C   0  0  0  0  0  0  0  0  0  0  0  0
    3.4149   -1.4147    0.0000 C   0  0  0  0  0  0  0  0  0  0  0  0
    2.2115   -2.0164    0.0000 C   0  0  0  0  0  0  0  0  0  0  0  0
    1.1058   -1.3009    0.0000 C   0  0  0  0  0  0  0  0  0  0  0  0
    0.3740   -2.3904    0.0000 O   0  0  0  0  0  0  0  0  0  0  0  0
    1.8375   -0.1789    0.0000 C   0  0  0  0  0  0  0  0  0  0  0  0
    0.0000   -0.5691    0.0000 C   0  0  0  0  0  0  0  0  0  0  0  0
    0.9757   -3.5775    0.0000 C   0  0  0  0  0  0  0  0  0  0  0  0
  1  2  1  0  0  0  0 
  1  3  2  0  0  0  0 
  1  4  1  0  0  0  0 
  2  5  2  0  0  0  0 
  4  6  1  0  0  0  0 
  5  7  1  0  0  0  0 
  5  8  1  0  0  0  0 
  6  9  1  0  0  0  0 
  6 10  1  0  0  0  0 
 11  7  2  0  0  0  0 
 11 12  1  0  0  0  0 
 12 13  1  0  0  0  0 
 13 14  1  0  0  0  0 
 13 15  1  0  0  0  0 
 16 14  1  0  0  0  0 
 16 17  1  0  0  0  0 
 18 17  1  0  0  0  0 
 18 19  1  0  0  0  0 
 18 20  1  0  0  0  0 
 18 21  1  0  0  0  0 
 19 22  1  0  0  0  0 
M  END
> <Name>
METHOPRENE

> <Source>
DSSTox2DMolFile

> <Tox>
-4.627

> <CAS>
40596-69-8

$$$$

  CDK

  7  6  0  0  0  0  0  0  0  0999 V2000
    1.5461    0.0376    0.3026 C   0  0  0  0  0  0  0  0  0  0  0  0
    0.1631   -0.1550   -0.2660 C   0  0  0  0  0  0  0  0  0  0  0  0
    2.4950   -1.0276   -0.2459 C   0  0  0  0  0  0  0  0  0  0  0  0
    2.0619    1.4381   -0.0267 C   0  0  0  0  0  0  0  0  0  0  0  0
   -0.9206   -0.4122    0.4819 C   0  0  0  0  0  0  0  0  0  0  0  0
   -2.2976   -0.6005   -0.0824 C   0  0  0  0  0  0  0  0  0  0  0  0
   -3.0480    0.7197   -0.1636 C   0  0  0  0  0  0  0  0  0  0  0  0
  1  2  1  0  0  0  0 
  1  3  1  0  0  0  0 
  1  4  1  0  0  0  0 
  2  5  2  0  0  0  0 
  5  6  1  0  0  0  0 
  6  7  1  0  0  0  0 
M  END
> <Name>
2-METHYL-3-HEXENE

> <Source>
Chemidplus3DMolFile

> <Tox>
1.881

> <CAS>
42154-69-8

$$$$

  CDK

 18 18  0  0  0  0  0  0  0  0999 V2000
    5.4625   -4.6175    0.0000 C   0  0  0  0  0  0  0  0  0  0  0  0
    6.2582   -5.6884    0.0000 N   0  0  0  0  0  0  0  0  0  0  0  0
    6.2582   -3.5565    0.0000 N   0  0  0  0  0  0  0  0  0  0  0  0
    4.1558   -4.6175    0.0000 O   0  0  0  0  0  0  0  0  0  0  0  0
    7.5256   -5.2660    0.0000 C   0  0  0  0  0  0  0  0  0  0  0  0
    7.5256   -3.9593    0.0000 N   0  0  0  0  0  0  0  0  0  0  0  0
    3.4779   -3.4582    0.0000 P   0  0  0  0  0  0  0  0  0  0  0  0
    8.6260   -6.0421    0.0000 Cl  0  0  0  0  0  0  0  0  0  0  0  0
    8.6456   -3.2814    0.0000 C   0  0  0  0  0  0  0  0  0  0  0  0
    4.6372   -2.8098    0.0000 S   0  0  0  0  0  0  0  0  0  0  0  0
    2.3284   -4.1361    0.0000 O   0  0  0  0  0  0  0  0  0  0  0  0
    2.8295   -2.3088    0.0000 O   0  0  0  0  0  0  0  0  0  0  0  0
    9.8246   -3.9593    0.0000 C   0  0  0  0  0  0  0  0  0  0  0  0
    8.6653   -1.9551    0.0000 C   0  0  0  0  0  0  0  0  0  0  0  0
    1.1789   -3.4582    0.0000 C   0  0  0  0  0  0  0  0  0  0  0  0
    3.4779   -1.1593    0.0000 C   0  0  0  0  0  0  0  0  0  0  0  0
    0.0000   -4.1165    0.0000 C   0  0  0  0  0  0  0  0  0  0  0  0
    2.8295   -0.0000    0.0000 C   0  0  0  0  0  0  0  0  0  0  0  0
  1  2  1  0  0  0  0 
  1  3  2  0  0  0  0 
  1  4  1  0  0  0  0 
  2  5  2  0  0  0  0 
  6  3  1  0  0  0  0 
  7  4  1  0  0  0  0 
  5  8  1  0  0  0  0 
  5  6  1  0  0  0  0 
  6  9  1  0  0  0  0 
  7 10  2  0  0  0  0 
  7 11  1  0  0  0  0 
  7 12  1  0  0  0  0 
  9 13  1  0  0  0  0 
  9 14  1  0  0  0  0 
 11 15  1  0  0  0  0 
 12 16  1  0  0  0  0 
 15 17  1  0  0  0  0 
 16 18  1  0  0  0  0 
M  END
> <Name>
ISAZOFOS

> <Source>
DSSTox2DMolFile

> <Tox>
-4.060

> <CAS>
42509-80-8

$$$$

  CDK

 18 20  0  0  0  0  0  0  0  0999 V2000
   -5.0042    1.6173    0.0016 Cl  0  0  0  0  0  0  0  0  0  0  0  0
   -3.5397    0.6982   -0.0006 C   0  0  0  0  0  0  0  0  0  0  0  0
   -2.3330    1.3986   -0.0005 C   0  0  0  0  0  0  0  0  0  0  0  0
   -3.5397   -0.6979   -0.0007 C   0  0  0  0  0  0  0  0  0  0  0  0
   -1.1280    0.6971   -0.0005 C   0  0  0  0  0  0  0  0  0  0  0  0
   -5.0038   -1.6180    0.0009 Cl  0  0  0  0  0  0  0  0  0  0  0  0
   -2.3332   -1.3983   -0.0006 C   0  0  0  0  0  0  0  0  0  0  0  0
    0.0337    1.4270   -0.0003 O   0  0  0  0  0  0  0  0  0  0  0  0
   -1.1280   -0.6969   -0.0004 C   0  0  0  0  0  0  0  0  0  0  0  0
    1.1953    0.6971   -0.0001 C   0  0  0  0  0  0  0  0  0  0  0  0
    0.0336   -1.4268   -0.0003 O   0  0  0  0  0  0  0  0  0  0  0  0
    1.1953   -0.6970    0.0001 C   0  0  0  0  0  0  0  0  0  0  0  0
    2.4006    1.3985    0.0002 C   0  0  0  0  0  0  0  0  0  0  0  0
    2.4005   -1.3984    0.0005 C   0  0  0  0  0  0  0  0  0  0  0  0
    3.6071    0.6980    0.0006 C   0  0  0  0  0  0  0  0  0  0  0  0
    3.6071   -0.6980    0.0008 C   0  0  0  0  0  0  0  0  0  0  0  0
    4.7683    1.3660   -0.0005 F   0  0  0  0  0  0  0  0  0  0  0  0
    4.7680   -1.3664   -0.0001 F   0  0  0  0  0  0  0  0  0  0  0  0
  1  2  1  0  0  0  0 
  3  2  1  0  0  0  0 
  2  4  2  0  0  0  0 
  5  3  2  0  0  0  0 
  6  4  1  0  0  0  0 
  7  4  1  0  0  0  0 
  8  5  1  0  0  0  0 
  5  9  1  0  0  0  0 
  9  7  2  0  0  0  0 
  8 10  1  0  0  0  0 
 11  9  1  0  0  0  0 
 10 12  1  0  0  0  0 
 10 13  2  0  0  0  0 
 11 12  1  0  0  0  0 
 12 14  2  0  0  0  0 
 13 15  1  0  0  0  0 
 14 16  1  0  0  0  0 
 17 15  1  0  0  0  0 
 15 16  2  0  0  0  0 
 18 16  1  0  0  0  0 
M  END
> <Name>
2,3-DICHLORO-7,8-DIFLUORODIBENZO-P-DIOXIN

> <Source>
Chemidplus3DMolFile

> <Tox>
-7.762

> <CAS>
50585-42-7

$$$$

  CDK

 18 20  0  0  0  0  0  0  0  0999 V2000
    2.5482   -3.0395   -0.0015 Cl  0  0  0  0  0  0  0  0  0  0  0  0
    2.5100   -1.3142    0.0008 C   0  0  0  0  0  0  0  0  0  0  0  0
    1.3056   -0.6115    0.0004 C   0  0  0  0  0  0  0  0  0  0  0  0
    3.7174   -0.6152    0.0009 C   0  0  0  0  0  0  0  0  0  0  0  0
    0.1431   -1.3399    0.0002 O   0  0  0  0  0  0  0  0  0  0  0  0
    1.3072    0.7827    0.0000 C   0  0  0  0  0  0  0  0  0  0  0  0
    3.7190    0.7808    0.0005 C   0  0  0  0  0  0  0  0  0  0  0  0
   -1.0177   -0.6087    0.0000 C   0  0  0  0  0  0  0  0  0  0  0  0
    0.1463    1.5138   -0.0003 O   0  0  0  0  0  0  0  0  0  0  0  0
    2.5132    1.4826    0.0000 C   0  0  0  0  0  0  0  0  0  0  0  0
    5.2113    1.6383   -0.0006 Cl  0  0  0  0  0  0  0  0  0  0  0  0
   -1.0161    0.7853   -0.0002 C   0  0  0  0  0  0  0  0  0  0  0  0
   -2.2237   -1.3088    0.0000 C   0  0  0  0  0  0  0  0  0  0  0  0
   -2.2204    1.4881   -0.0003 C   0  0  0  0  0  0  0  0  0  0  0  0
   -3.4294   -0.6070   -0.0001 C   0  0  0  0  0  0  0  0  0  0  0  0
   -3.4278    0.7890   -0.0003 C   0  0  0  0  0  0  0  0  0  0  0  0
   -4.8944   -1.5254    0.0004 Cl  0  0  0  0  0  0  0  0  0  0  0  0
   -4.8917    1.7096    0.0001 Cl  0  0  0  0  0  0  0  0  0  0  0  0
  1  2  1  0  0  0  0 
  3  2  1  0  0  0  0 
  2  4  2  0  0  0  0 
  5  3  1  0  0  0  0 
  3  6  2  0  0  0  0 
  4  7  1  0  0  0  0 
  5  8  1  0  0  0  0 
  9  6  1  0  0  0  0 
  6 10  1  0  0  0  0 
 11  7  1  0  0  0  0 
 10  7  2  0  0  0  0 
  8 12  1  0  0  0  0 
  8 13  2  0  0  0  0 
  9 12  1  0  0  0  0 
 12 14  2  0  0  0  0 
 13 15  1  0  0  0  0 
 14 16  1  0  0  0  0 
 17 15  1  0  0  0  0 
 15 16  2  0  0  0  0 
 18 16  1  0  0  0  0 
M  END
> <Name>
1,3,7,8-TETRACHLORODIBENZO-P-DIOXIN

> <Source>
Chemidplus3DMolFile

> <Tox>
-8.201

> <CAS>
50585-46-1

$$$$

  CDK

 19 19  0  0  0  0  0  0  0  0999 V2000
    3.9875   -4.6095    0.0000 N   0  0  0  0  0  0  0  0  0  0  0  0
    2.6607   -4.6095    0.0000 C   0  0  0  0  0  0  0  0  0  0  0  0
    4.6579   -5.7567    0.0000 C   0  0  0  0  0  0  0  0  0  0  0  0
    4.6579   -3.4554    0.0000 C   0  0  0  0  0  0  0  0  0  0  0  0
    1.9972   -5.7567    0.0000 C   0  0  0  0  0  0  0  0  0  0  0  0
    1.9972   -3.4554    0.0000 C   0  0  0  0  0  0  0  0  0  0  0  0
    3.9875   -6.9108    0.0000 O   0  0  0  0  0  0  0  0  0  0  0  0
    5.9848   -5.7567    0.0000 C   0  0  0  0  0  0  0  0  0  0  0  0
    3.9875   -2.3013    0.0000 C   0  0  0  0  0  0  0  0  0  0  0  0
    5.9848   -3.4554    0.0000 C   0  0  0  0  0  0  0  0  0  0  0  0
    0.6634   -5.7567    0.0000 C   0  0  0  0  0  0  0  0  0  0  0  0
    2.6607   -6.9108    0.0000 C   0  0  0  0  0  0  0  0  0  0  0  0
    0.6634   -3.4554    0.0000 C   0  0  0  0  0  0  0  0  0  0  0  0
    2.6607   -2.3013    0.0000 C   0  0  0  0  0  0  0  0  0  0  0  0
    6.6482   -4.6095    0.0000 Cl  0  0  0  0  0  0  0  0  0  0  0  0
    4.6579   -1.1541    0.0000 O   0  0  0  0  0  0  0  0  0  0  0  0
    0.0000   -4.6095    0.0000 C   0  0  0  0  0  0  0  0  0  0  0  0
    1.9972   -1.1541    0.0000 C   0  0  0  0  0  0  0  0  0  0  0  0
    3.9875   -0.0000    0.0000 C   0  0  0  0  0  0  0  0  0  0  0  0
  1  2  1  0  0  0  0 
  1  3  1  0  0  0  0 
  1  4  1  0  0  0  0 
  2  5  1  0  0  0  0 
  2  6  2  0  0  0  0 
  3  7  2  0  0  0  0 
  3  8  1  0  0  0  0 
  4  9  1  0  0  0  0 
  4 10  1  0  0  0  0 
  5 11  2  0  0  0  0 
  5 12  1  0  0  0  0 
 13  6  1  0  0  0  0 
  6 14  1  0  0  0  0 
  8 15  1  0  0  0  0 
  9 16  1  0  0  0  0 
 11 17  1  0  0  0  0 
 17 13  2  0  0  0  0 
 14 18  1  0  0  0  0 
 16 19  1  0  0  0  0 
M  END
> <Name>
METOLACHLOR

> <Source>
DSSTox2DMolFile

> <Tox>
-4.503

> <CAS>
51218-45-2

$$$$

  CDK

 30 32  0  0  0  0  0  0  0  0999 V2000
    3.4569   -1.3252    0.0000 O   0  0  0  0  0  0  0  0  0  0  0  0
    3.4569   -2.6618    0.0000 C   0  0  0  0  0  0  0  0  0  0  0  0
    2.3046   -3.3186    0.0000 C   0  0  0  0  0  0  0  0  0  0  0  0
    4.6092   -3.3186    0.0000 O   0  0  0  0  0  0  0  0  0  0  0  0
    2.3046   -4.6553    0.0000 C   0  0  0  0  0  0  0  0  0  0  0  0
    1.1523   -2.6618    0.0000 C   0  0  0  0  0  0  0  0  0  0  0  0
    5.7615   -2.6618    0.0000 C   0  0  0  0  0  0  0  0  0  0  0  0
    3.4569   -5.3237    0.0000 C   0  0  0  0  0  0  0  0  0  0  0  0
    1.1523   -5.3237    0.0000 C   0  0  0  0  0  0  0  0  0  0  0  0
    0.0000   -3.3186    0.0000 C   0  0  0  0  0  0  0  0  0  0  0  0
    1.1523   -1.3252    0.0000 C   0  0  0  0  0  0  0  0  0  0  0  0
    6.9138   -3.3186    0.0000 C   0  0  0  0  0  0  0  0  0  0  0  0
    5.7615   -1.3252    0.0000 C   0  0  0  0  0  0  0  0  0  0  0  0
    3.4569   -6.6488    0.0000 C   0  0  0  0  0  0  0  0  0  0  0  0
    1.1523   -6.6488    0.0000 C   0  0  0  0  0  0  0  0  0  0  0  0
    8.0661   -2.6618    0.0000 C   0  0  0  0  0  0  0  0  0  0  0  0
    6.9138   -4.6553    0.0000 C   0  0  0  0  0  0  0  0  0  0  0  0
    5.7615   -0.0000    0.0000 N   0  0  0  0  0  0  0  0  0  0  0  0
    2.3046   -7.3171    0.0000 C   0  0  0  0  0  0  0  0  0  0  0  0
    9.2184   -3.3186    0.0000 C   0  0  0  0  0  0  0  0  0  0  0  0
    8.0661   -5.3237    0.0000 C   0  0  0  0  0  0  0  0  0  0  0  0
    2.3046   -8.6423    0.0000 Cl  0  0  0  0  0  0  0  0  0  0  0  0
    9.2184   -4.6553    0.0000 C   0  0  0  0  0  0  0  0  0  0  0  0
    8.0661   -6.6488    0.0000 O   0  0  0  0  0  0  0  0  0  0  0  0
    9.2184   -7.3171    0.0000 C   0  0  0  0  0  0  0  0  0  0  0  0
   10.3708   -6.6488    0.0000 C   0  0  0  0  0  0  0  0  0  0  0  0
    9.2184   -8.6423    0.0000 C   0  0  0  0  0  0  0  0  0  0  0  0
   11.5231   -7.3171    0.0000 C   0  0  0  0  0  0  0  0  0  0  0  0
   10.3708   -9.3106    0.0000 C   0  0  0  0  0  0  0  0  0  0  0  0
   11.5231   -8.6423    0.0000 C   0  0  0  0  0  0  0  0  0  0  0  0
  1  2  2  0  0  0  0 
  2  3  1  0  0  0  0 
  2  4  1  0  0  0  0 
  3  5  1  0  0  0  0 
  3  6  1  0  0  0  0 
  4  7  1  0  0  0  0 
  5  8  2  0  0  0  0 
  5  9  1  0  0  0  0 
  6 10  1  0  0  0  0 
  6 11  1  0  0  0  0 
  7 12  1  0  0  0  0 
  7 13  1  0  0  0  0 
  8 14  1  0  0  0  0 
 15  9  2  0  0  0  0 
 12 16  2  0  0  0  0 
 12 17  1  0  0  0  0 
 13 18  3  0  0  0  0 
 14 19  2  0  0  0  0 
 19 15  1  0  0  0  0 
 16 20  1  0  0  0  0 
 21 17  2  0  0  0  0 
 19 22  1  0  0  0  0 
 20 23  2  0  0  0  0 
 23 21  1  0  0  0  0 
 21 24  1  0  0  0  0 
 24 25  1  0  0  0  0 
 25 26  2  0  0  0  0 
 25 27  1  0  0  0  0 
 26 28  1  0  0  0  0 
 29 27  2  0  0  0  0 
 28 30  2  0  0  0  0 
 30 29  1  0  0  0  0 
M  END
> <Name>
FENVALERATE

> <Source>
DSSTox2DMolFile

> <Tox>
-8.824

> <CAS>
51630-58-1

$$$$

  CDK

 18 19  0  0  0  0  0  0  0  0999 V2000
    2.9895    0.0000    0.0000 Cl  0  0  0  0  0  0  0  0  0  0  0  0
    3.4878    0.8969    0.0000 C   0  0  0  0  0  0  0  0  0  0  0  0
    2.9895    1.7439    0.0000 C   0  0  0  0  0  0  0  0  0  0  0  0
    4.4843    0.8969    0.0000 C   0  0  0  0  0  0  0  0  0  0  0  0
    3.4878    2.5909    0.0000 C   0  0  0  0  0  0  0  0  0  0  0  0
    1.9930    1.7439    0.0000 C   0  0  0  0  0  0  0  0  0  0  0  0
    4.9825    0.0000    0.0000 Cl  0  0  0  0  0  0  0  0  0  0  0  0
    4.9825    1.7439    0.0000 C   0  0  0  0  0  0  0  0  0  0  0  0
    2.9895    3.4878    0.0000 Cl  0  0  0  0  0  0  0  0  0  0  0  0
    4.4843    2.5909    0.0000 C   0  0  0  0  0  0  0  0  0  0  0  0
    1.4948    0.8969    0.0000 C   0  0  0  0  0  0  0  0  0  0  0  0
    1.4948    2.5909    0.0000 C   0  0  0  0  0  0  0  0  0  0  0  0
    4.9825    3.4878    0.0000 Cl  0  0  0  0  0  0  0  0  0  0  0  0
    1.9930    0.0000    0.0000 Cl  0  0  0  0  0  0  0  0  0  0  0  0
    0.4983    0.8969    0.0000 C   0  0  0  0  0  0  0  0  0  0  0  0
    0.4983    2.5909    0.0000 C   0  0  0  0  0  0  0  0  0  0  0  0
    0.0000    1.7439    0.0000 C   0  0  0  0  0  0  0  0  0  0  0  0
    0.0000    3.4878    0.0000 Cl  0  0  0  0  0  0  0  0  0  0  0  0
  1  2  1  0  0  0  0 
  3  2  2  0  0  0  0 
  2  4  1  0  0  0  0 
  5  3  1  0  0  0  0 
  3  6  1  0  0  0  0 
  4  7  1  0  0  0  0 
  4  8  2  0  0  0  0 
  5  9  1  0  0  0  0 
 10  5  2  0  0  0  0 
 11  6  2  0  0  0  0 
  6 12  1  0  0  0  0 
  8 10  1  0  0  0  0 
 10 13  1  0  0  0  0 
 11 14  1  0  0  0  0 
 15 11  1  0  0  0  0 
 12 16  2  0  0  0  0 
 17 15  2  0  0  0  0 
 16 17  1  0  0  0  0 
 16 18  1  0  0  0  0 
M  END
> <Name>
2,2',3,5,5',6-HEXACHLOROBIPHENYL

> <Source>
NIST2DMolFile

> <Tox>
-5.640

> <CAS>
52663-63-5

$$$$

  CDK

 17 17  0  0  0  0  0  0  0  0999 V2000
    6.3573    2.4240    0.0000 N   0  0  0  0  0  0  0  0  0  0  0  0
    6.3573    3.7504    0.0000 C   0  0  0  0  0  0  0  0  0  0  0  0
    7.7751    2.2411    0.0000 C   0  0  0  0  0  0  0  0  0  0  0  0
    5.4883    1.3263    0.0000 C   0  0  0  0  0  0  0  0  0  0  0  0
    4.9852    3.9333    0.0000 S   0  0  0  0  0  0  0  0  0  0  0  0
    7.5007    4.3907    0.0000 O   0  0  0  0  0  0  0  0  0  0  0  0
    8.3697    0.6860    0.0000 C   0  0  0  0  0  0  0  0  0  0  0  0
    3.8418    1.6008    0.0000 C   0  0  0  0  0  0  0  0  0  0  0  0
    4.3907    5.4883    0.0000 C   0  0  0  0  0  0  0  0  0  0  0  0
   10.0162    0.9147    0.0000 C   0  0  0  0  0  0  0  0  0  0  0  0
    3.2473    0.0000    0.0000 C   0  0  0  0  0  0  0  0  0  0  0  0
    2.7442    5.2596    0.0000 C   0  0  0  0  0  0  0  0  0  0  0  0
    1.8752    6.3573    0.0000 C   0  0  0  0  0  0  0  0  0  0  0  0
    2.1953    3.9790    0.0000 C   0  0  0  0  0  0  0  0  0  0  0  0
    0.5031    6.1286    0.0000 C   0  0  0  0  0  0  0  0  0  0  0  0
    0.8232    3.7961    0.0000 C   0  0  0  0  0  0  0  0  0  0  0  0
    0.0000    4.8938    0.0000 C   0  0  0  0  0  0  0  0  0  0  0  0
  1  2  1  0  0  0  0 
  1  3  1  0  0  0  0 
  1  4  1  0  0  0  0 
  2  5  1  0  0  0  0 
  2  6  2  0  0  0  0 
  3  7  1  0  0  0  0 
  4  8  1  0  0  0  0 
  5  9  1  0  0  0  0 
  7 10  1  0  0  0  0 
  8 11  1  0  0  0  0 
  9 12  1  0  0  0  0 
 12 13  2  0  0  0  0 
 12 14  1  0  0  0  0 
 13 15  1  0  0  0  0 
 16 14  2  0  0  0  0 
 15 17  2  0  0  0  0 
 17 16  1  0  0  0  0 
M  END
> <Name>
PROSULFOCARB

> <Source>
IndexNet2DMolFile

> <Tox>
-6.286

> <CAS>
52888-80-9

$$$$

  CDK

 15 16  0  0  0  0  0  0  0  0999 V2000
   -1.1164   -3.0066   -0.0007 Cl  0  0  0  0  0  0  0  0  0  0  0  0
   -1.0144   -1.2600    0.0001 C   0  0  0  0  0  0  0  0  0  0  0  0
    0.2342   -0.6173    0.0000 C   0  0  0  0  0  0  0  0  0  0  0  0
   -2.1964   -0.5190    0.0000 C   0  0  0  0  0  0  0  0  0  0  0  0
    0.2846    0.7970   -0.0002 C   0  0  0  0  0  0  0  0  0  0  0  0
    1.4340   -1.3474    0.0001 C   0  0  0  0  0  0  0  0  0  0  0  0
   -3.7466   -1.3146    0.0008 Cl  0  0  0  0  0  0  0  0  0  0  0  0
   -2.1469    0.8718   -0.0003 C   0  0  0  0  0  0  0  0  0  0  0  0
   -0.9153    1.5271   -0.0003 C   0  0  0  0  0  0  0  0  0  0  0  0
    1.5333    1.4397   -0.0003 C   0  0  0  0  0  0  0  0  0  0  0  0
    2.6658   -0.6923    0.0000 C   0  0  0  0  0  0  0  0  0  0  0  0
   -3.5691    1.8605    0.0002 Cl  0  0  0  0  0  0  0  0  0  0  0  0
    1.7113    3.1662    0.0004 Cl  0  0  0  0  0  0  0  0  0  0  0  0
    2.7153    0.6986   -0.0003 C   0  0  0  0  0  0  0  0  0  0  0  0
    4.1267   -1.6036    0.0005 Cl  0  0  0  0  0  0  0  0  0  0  0  0
  1  2  1  0  0  0  0 
  3  2  2  0  0  0  0 
  2  4  1  0  0  0  0 
  3  5  1  0  0  0  0 
  3  6  1  0  0  0  0 
  7  4  1  0  0  0  0 
  4  8  2  0  0  0  0 
  5  9  2  0  0  0  0 
  5 10  1  0  0  0  0 
  6 11  2  0  0  0  0 
 12  8  1  0  0  0  0 
  9  8  1  0  0  0  0 
 13 10  1  0  0  0  0 
 10 14  2  0  0  0  0 
 15 11  1  0  0  0  0 
 11 14  1  0  0  0  0 
M  END
> <Name>
1,2,3,5,7-PENTACHLORONAPHTHALENE

> <Source>
Chemidplus3DMolFile

> <Tox>
-5.678

> <CAS>
53555-65-0

$$$$

  CDK

 17 19  0  0  0  0  0  0  0  0999 V2000
    3.2630   -2.3379   -0.0015 Cl  0  0  0  0  0  0  0  0  0  0  0  0
    2.6504   -0.7300    0.0005 C   0  0  0  0  0  0  0  0  0  0  0  0
    1.2748   -0.5060    0.0005 C   0  0  0  0  0  0  0  0  0  0  0  0
    3.4666    0.4049    0.0003 C   0  0  0  0  0  0  0  0  0  0  0  0
    0.3166   -1.4742    0.0008 O   0  0  0  0  0  0  0  0  0  0  0  0
    0.6896    0.7563    0.0002 C   0  0  0  0  0  0  0  0  0  0  0  0
    5.1935    0.2735   -0.0010 Cl  0  0  0  0  0  0  0  0  0  0  0  0
    2.9193    1.6899    0.0005 C   0  0  0  0  0  0  0  0  0  0  0  0
   -0.8911   -0.8445    0.0005 C   0  0  0  0  0  0  0  0  0  0  0  0
   -0.7190    0.5362    0.0001 C   0  0  0  0  0  0  0  0  0  0  0  0
    1.5314    1.8838    0.0002 C   0  0  0  0  0  0  0  0  0  0  0  0
   -2.1330   -1.4775    0.0006 C   0  0  0  0  0  0  0  0  0  0  0  0
   -1.8647    1.3531    0.0000 C   0  0  0  0  0  0  0  0  0  0  0  0
   -3.2564   -0.6457    0.0002 C   0  0  0  0  0  0  0  0  0  0  0  0
   -3.1273    0.7451   -0.0003 C   0  0  0  0  0  0  0  0  0  0  0  0
   -4.8067   -1.4184   -0.0004 Cl  0  0  0  0  0  0  0  0  0  0  0  0
   -4.5071    1.7915   -0.0011 Cl  0  0  0  0  0  0  0  0  0  0  0  0
  1  2  1  0  0  0  0 
  3  2  1  0  0  0  0 
  2  4  2  0  0  0  0 
  5  3  1  0  0  0  0 
  6  3  2  0  0  0  0 
  7  4  1  0  0  0  0 
  8  4  1  0  0  0  0 
  5  9  1  0  0  0  0 
 10  6  1  0  0  0  0 
  6 11  1  0  0  0  0 
 11  8  2  0  0  0  0 
 10  9  1  0  0  0  0 
  9 12  2  0  0  0  0 
 10 13  2  0  0  0  0 
 12 14  1  0  0  0  0 
 13 15  1  0  0  0  0 
 16 14  1  0  0  0  0 
 15 14  2  0  0  0  0 
 17 15  1  0  0  0  0 
M  END
> <Name>
DIBENZOFURAN, 2,3,6,7-TETRACHLORO-

> <Source>
Chemidplus3DMolFile

> <Tox>
-7.678

> <CAS>
57117-39-2

$$$$

  CDK

 18 20  0  0  0  0  0  0  0  0999 V2000
   -1.2274    2.7639   -0.0001 Cl  0  0  0  0  0  0  0  0  0  0  0  0
   -1.6800    1.1137    0.0000 C   0  0  0  0  0  0  0  0  0  0  0  0
   -0.6471    0.1582   -0.0001 C   0  0  0  0  0  0  0  0  0  0  0  0
   -3.0095    0.6707   -0.0003 C   0  0  0  0  0  0  0  0  0  0  0  0
    0.7780    0.1980   -0.0001 C   0  0  0  0  0  0  0  0  0  0  0  0
   -0.9928   -1.1896   -0.0001 C   0  0  0  0  0  0  0  0  0  0  0  0
   -4.2960    1.8442   -0.0006 Cl  0  0  0  0  0  0  0  0  0  0  0  0
   -3.3138   -0.6926    0.0000 C   0  0  0  0  0  0  0  0  0  0  0  0
    1.1985   -1.1282   -0.0001 C   0  0  0  0  0  0  0  0  0  0  0  0
    1.7560    1.2098    0.0000 C   0  0  0  0  0  0  0  0  0  0  0  0
    0.1254   -1.9672    0.0000 O   0  0  0  0  0  0  0  0  0  0  0  0
   -2.3049   -1.6601    0.0000 C   0  0  0  0  0  0  0  0  0  0  0  0
   -4.9467   -1.2755    0.0010 Cl  0  0  0  0  0  0  0  0  0  0  0  0
    2.5347   -1.5248   -0.0003 C   0  0  0  0  0  0  0  0  0  0  0  0
    3.1081    0.8415    0.0002 C   0  0  0  0  0  0  0  0  0  0  0  0
    3.4881   -0.5024   -0.0003 C   0  0  0  0  0  0  0  0  0  0  0  0
    4.2763    2.1205    0.0008 Cl  0  0  0  0  0  0  0  0  0  0  0  0
    5.1531   -0.9802   -0.0001 Cl  0  0  0  0  0  0  0  0  0  0  0  0
  1  2  1  0  0  0  0 
  3  2  2  0  0  0  0 
  2  4  1  0  0  0  0 
  3  5  1  0  0  0  0 
  3  6  1  0  0  0  0 
  7  4  1  0  0  0  0 
  4  8  2  0  0  0  0 
  5  9  1  0  0  0  0 
  5 10  2  0  0  0  0 
 11  6  1  0  0  0  0 
  6 12  2  0  0  0  0 
 13  8  1  0  0  0  0 
 12  8  1  0  0  0  0 
 11  9  1  0  0  0  0 
  9 14  2  0  0  0  0 
 10 15  1  0  0  0  0 
 14 16  1  0  0  0  0 
 17 15  1  0  0  0  0 
 15 16  2  0  0  0  0 
 18 16  1  0  0  0  0 
M  END
> <Name>
DIBENZOFURAN, 1,2,3,7,8-PENTACHLORO-

> <Source>
Chemidplus3DMolFile

> <Tox>
-8.762

> <CAS>
57117-41-6

$$$$

  CDK

 14 13  0  0  0  0  0  0  0  0999 V2000
    3.4276   -2.0072    0.0000 C   0  0  0  0  0  0  0  0  0  0  0  0
    4.5702   -1.3175    0.0000 C   0  0  0  0  0  0  0  0  0  0  0  0
    2.2851   -1.3175    0.0000 N   0  0  0  0  0  0  0  0  0  0  0  0
    3.4276   -3.3247    0.0000 C   0  0  0  0  0  0  0  0  0  0  0  0
    5.7230   -2.0072    0.0000 N   0  0  0  0  0  0  0  0  0  0  0  0
    4.5702   -0.0000    0.0000 O   0  0  0  0  0  0  0  0  0  0  0  0
    1.1323   -2.0072    0.0000 O   0  0  0  0  0  0  0  0  0  0  0  0
    3.4276   -4.6422    0.0000 N   0  0  0  0  0  0  0  0  0  0  0  0
    6.8759   -1.3175    0.0000 C   0  0  0  0  0  0  0  0  0  0  0  0
    0.0000   -1.3175    0.0000 C   0  0  0  0  0  0  0  0  0  0  0  0
    8.0081   -2.0072    0.0000 N   0  0  0  0  0  0  0  0  0  0  0  0
    6.8759   -0.0000    0.0000 O   0  0  0  0  0  0  0  0  0  0  0  0
    9.1610   -1.3175    0.0000 C   0  0  0  0  0  0  0  0  0  0  0  0
   10.2932   -2.0072    0.0000 C   0  0  0  0  0  0  0  0  0  0  0  0
  1  2  1  0  0  0  0 
  1  3  2  0  0  0  0 
  1  4  1  0  0  0  0 
  2  5  1  0  0  0  0 
  2  6  2  0  0  0  0 
  3  7  1  0  0  0  0 
  4  8  3  0  0  0  0 
  5  9  1  0  0  0  0 
  7 10  1  0  0  0  0 
  9 11  1  0  0  0  0 
  9 12  2  0  0  0  0 
 11 13  1  0  0  0  0 
 13 14  1  0  0  0  0 
M  END
> <Name>
Cymoxanil

> <Source>
DSSTox2DMolFile

> <Tox>
-5.947

> <CAS>
57966-95-7

$$$$

  CDK

 26 27  0  0  0  0  0  0  0  0999 V2000
    4.5212    0.0000    0.0000 O   0  0  0  0  0  0  0  0  0  0  0  0
    4.5212    0.9042    0.0000 C   0  0  0  0  0  0  0  0  0  0  0  0
    3.6170    1.3564    0.0000 O   0  0  0  0  0  0  0  0  0  0  0  0
    5.4255    1.3564    0.0000 N   0  0  0  0  0  0  0  0  0  0  0  0
    3.6170    2.2104    0.0000 C   0  0  0  0  0  0  0  0  0  0  0  0
    6.2795    0.9042    0.0000 S   0  0  0  0  0  0  0  0  0  0  0  0
    5.4255    2.2104    0.0000 C   0  0  0  0  0  0  0  0  0  0  0  0
    4.5212    2.6625    0.0000 C   0  0  0  0  0  0  0  0  0  0  0  0
    2.7127    2.6625    0.0000 C   0  0  0  0  0  0  0  0  0  0  0  0
    7.1335    1.3564    0.0000 N   0  0  0  0  0  0  0  0  0  0  0  0
    4.5212    3.5667    0.0000 C   0  0  0  0  0  0  0  0  0  0  0  0
    1.8085    2.2104    0.0000 O   0  0  0  0  0  0  0  0  0  0  0  0
    2.7127    3.5667    0.0000 C   0  0  0  0  0  0  0  0  0  0  0  0
    8.0377    0.9042    0.0000 C   0  0  0  0  0  0  0  0  0  0  0  0
    7.1335    2.2104    0.0000 C   0  0  0  0  0  0  0  0  0  0  0  0
    3.6170    4.0189    0.0000 C   0  0  0  0  0  0  0  0  0  0  0  0
    0.9042    2.6625    0.0000 C   0  0  0  0  0  0  0  0  0  0  0  0
    0.9042    3.5667    0.0000 C   0  0  0  0  0  0  0  0  0  0  0  0
    8.0377    0.0000    0.0000 O   0  0  0  0  0  0  0  0  0  0  0  0
    8.9420    1.3564    0.0000 O   0  0  0  0  0  0  0  0  0  0  0  0
    0.0000    2.2104    0.0000 C   0  0  0  0  0  0  0  0  0  0  0  0
    0.0000    3.1146    0.0000 C   0  0  0  0  0  0  0  0  0  0  0  0
    9.8462    0.9042    0.0000 C   0  0  0  0  0  0  0  0  0  0  0  0
   10.7505    1.3564    0.0000 C   0  0  0  0  0  0  0  0  0  0  0  0
   11.6547    0.9042    0.0000 C   0  0  0  0  0  0  0  0  0  0  0  0
   12.5590    1.3564    0.0000 C   0  0  0  0  0  0  0  0  0  0  0  0
  1  2  2  0  0  0  0 
  2  3  1  0  0  0  0 
  2  4  1  0  0  0  0 
  3  5  1  0  0  0  0 
  4  6  1  0  0  0  0 
  4  7  1  0  0  0  0 
  8  5  2  0  0  0  0 
  5  9  1  0  0  0  0 
  6 10  1  0  0  0  0 
 11  8  1  0  0  0  0 
  9 12  1  0  0  0  0 
 13  9  2  0  0  0  0 
 14 10  1  0  0  0  0 
 10 15  1  0  0  0  0 
 16 11  2  0  0  0  0 
 12 17  1  0  0  0  0 
 18 13  1  0  0  0  0 
 13 16  1  0  0  0  0 
 19 14  2  0  0  0  0 
 14 20  1  0  0  0  0 
 21 17  1  0  0  0  0 
 17 18  1  0  0  0  0 
 17 22  1  0  0  0  0 
 20 23  1  0  0  0  0 
 23 24  1  0  0  0  0 
 24 25  1  0  0  0  0 
 25 26  1  0  0  0  0 
M  END
> <Name>
FURATHIOCARB

> <Source>
NIST2DMolFile

> <Tox>
-7.533

> <CAS>
65907-30-4

$$$$

  CDK

 22 24  0  0  0  0  0  0  0  0999 V2000
    1.7726    3.6343    0.0005 Cl  0  0  0  0  0  0  0  0  0  0  0  0
    2.1869    1.9489   -0.0006 C   0  0  0  0  0  0  0  0  0  0  0  0
    1.2847    0.8783   -0.0001 C   0  0  0  0  0  0  0  0  0  0  0  0
    3.5603    1.7032   -0.0005 C   0  0  0  0  0  0  0  0  0  0  0  0
    1.7614   -0.4342    0.0002 C   0  0  0  0  0  0  0  0  0  0  0  0
   -0.1677    1.1480    0.0003 C   0  0  0  0  0  0  0  0  0  0  0  0
    4.0359    0.3935    0.0000 C   0  0  0  0  0  0  0  0  0  0  0  0
    0.8206   -1.5731    0.0000 C   0  0  0  0  0  0  0  0  0  0  0  0
    3.1404   -0.6763    0.0005 C   0  0  0  0  0  0  0  0  0  0  0  0
   -0.6014    2.2913    0.0018 O   0  0  0  0  0  0  0  0  0  0  0  0
   -1.1085    0.0092    0.0004 C   0  0  0  0  0  0  0  0  0  0  0  0
    1.2183   -2.7294   -0.0016 O   0  0  0  0  0  0  0  0  0  0  0  0
   -0.6317   -1.3034    0.0002 C   0  0  0  0  0  0  0  0  0  0  0  0
    3.9033   -2.2350   -0.0005 Cl  0  0  0  0  0  0  0  0  0  0  0  0
   -2.4874    0.2512    0.0008 C   0  0  0  0  0  0  0  0  0  0  0  0
   -1.5340   -2.3740    0.0006 C   0  0  0  0  0  0  0  0  0  0  0  0
   -3.0760    1.5491   -0.0009 N   0  0  0  0  0  0  0  0  0  0  0  0
   -3.3831   -0.8186    0.0011 C   0  0  0  0  0  0  0  0  0  0  0  0
   -1.1376   -3.7313    0.0002 N   0  0  0  0  0  0  0  0  0  0  0  0
   -2.9075   -2.1283    0.0010 C   0  0  0  0  0  0  0  0  0  0  0  0
   -3.3238    2.1002    1.0959 O   0  0  0  0  0  0  0  0  0  0  0  0
   -3.3257    2.0964   -1.0992 O   0  0  0  0  0  0  0  0  0  0  0  0
  1  2  1  0  0  0  0 
  3  2  2  0  0  0  0 
  2  4  1  0  0  0  0 
  3  5  1  0  0  0  0 
  3  6  1  0  0  0  0 
  4  7  2  0  0  0  0 
  5  8  1  0  0  0  0 
  5  9  2  0  0  0  0 
 10  6  2  0  0  0  0 
 11  6  1  0  0  0  0 
  9  7  1  0  0  0  0 
 12  8  2  0  0  0  0 
 13  8  1  0  0  0  0 
 14  9  1  0  0  0  0 
 11 13  1  0  0  0  0 
 11 15  2  0  0  0  0 
 13 16  2  0  0  0  0 
 17 15  1  0  0  0  0 
 15 18  1  0  0  0  0 
 19 16  1  0  0  0  0 
 16 20  1  0  0  0  0 
 21 17  1  0  0  0  0 
 22 17  2  0  0  0  0 
 18 20  2  0  0  0  0 
M  CHG  1  17   1
M  CHG  1  21  -1
M  END
> <Name>
DIS. A. 18

> <Source>
Chemidplus3DMolFile

> <Tox>
-12.398

> <CAS>
66121-41-3

$$$$

  CDK

 30 32  0  0  0  0  0  0  0  0999 V2000
    3.9890   -3.3302    0.0000 C   0  0  0  0  0  0  0  0  0  0  0  0
    5.3187   -3.3302    0.0000 C   0  0  0  0  0  0  0  0  0  0  0  0
    3.3182   -2.2041    0.0000 C   0  0  0  0  0  0  0  0  0  0  0  0
    3.3661   -4.5161    0.0000 C   0  0  0  0  0  0  0  0  0  0  0  0
    5.9775   -4.4801    0.0000 C   0  0  0  0  0  0  0  0  0  0  0  0
    5.9895   -2.2041    0.0000 C   0  0  0  0  0  0  0  0  0  0  0  0
    1.9885   -2.2041    0.0000 C   0  0  0  0  0  0  0  0  0  0  0  0
    2.0364   -4.5161    0.0000 C   0  0  0  0  0  0  0  0  0  0  0  0
    7.2593   -4.4801    0.0000 O   0  0  0  0  0  0  0  0  0  0  0  0
    5.3187   -5.6181    0.0000 O   0  0  0  0  0  0  0  0  0  0  0  0
    7.3072   -2.2041    0.0000 C   0  0  0  0  0  0  0  0  0  0  0  0
    5.3307   -1.0542    0.0000 C   0  0  0  0  0  0  0  0  0  0  0  0
    1.3297   -3.4260    0.0000 C   0  0  0  0  0  0  0  0  0  0  0  0
    7.9900   -5.6541    0.0000 C   0  0  0  0  0  0  0  0  0  0  0  0
    0.0000   -3.4380    0.0000 Cl  0  0  0  0  0  0  0  0  0  0  0  0
    9.3077   -5.6541    0.0000 C   0  0  0  0  0  0  0  0  0  0  0  0
    7.3072   -6.7921    0.0000 C   0  0  0  0  0  0  0  0  0  0  0  0
    9.9785   -4.5640    0.0000 C   0  0  0  0  0  0  0  0  0  0  0  0
    9.9785   -6.8400    0.0000 C   0  0  0  0  0  0  0  0  0  0  0  0
    6.6124   -8.2296    0.0000 N   0  0  0  0  0  0  0  0  0  0  0  0
   11.2603   -4.5640    0.0000 C   0  0  0  0  0  0  0  0  0  0  0  0
   11.2962   -6.8400    0.0000 C   0  0  0  0  0  0  0  0  0  0  0  0
   11.9431   -3.4260    0.0000 O   0  0  0  0  0  0  0  0  0  0  0  0
   11.9790   -5.6780    0.0000 C   0  0  0  0  0  0  0  0  0  0  0  0
   11.2962   -2.2521    0.0000 C   0  0  0  0  0  0  0  0  0  0  0  0
   11.8951   -1.0901    0.0000 C   0  0  0  0  0  0  0  0  0  0  0  0
    9.9905   -2.2521    0.0000 C   0  0  0  0  0  0  0  0  0  0  0  0
   11.2483   -0.0000    0.0000 C   0  0  0  0  0  0  0  0  0  0  0  0
    9.2837   -1.1500    0.0000 C   0  0  0  0  0  0  0  0  0  0  0  0
    9.9426   -0.0000    0.0000 C   0  0  0  0  0  0  0  0  0  0  0  0
  1  2  1  0  0  0  0 
  1  3  2  0  0  0  0 
  1  4  1  0  0  0  0 
  2  5  1  0  0  0  0 
  2  6  1  6  0  0  0 
  3  7  1  0  0  0  0 
  4  8  2  0  0  0  0 
  5  9  1  0  0  0  0 
  5 10  2  0  0  0  0 
  6 11  1  0  0  0  0 
  6 12  1  0  0  0  0 
  7 13  2  0  0  0  0 
  8 13  1  0  0  0  0 
  9 14  1  0  0  0  0 
 13 15  1  0  0  0  0 
 14 16  1  0  0  0  0 
 14 17  1  1  0  0  0 
 16 18  1  0  0  0  0 
 16 19  2  0  0  0  0 
 17 20  3  0  0  0  0 
 18 21  2  0  0  0  0 
 19 22  1  0  0  0  0 
 21 23  1  0  0  0  0 
 21 24  1  0  0  0  0 
 22 24  2  0  0  0  0 
 23 25  1  0  0  0  0 
 25 26  2  0  0  0  0 
 25 27  1  0  0  0  0 
 26 28  1  0  0  0  0 
 27 29  2  0  0  0  0 
 28 30  2  0  0  0  0 
 29 30  1  0  0  0  0 
M  END
> <Name>
ESFENVALERATE

> <Source>
DSSTox2DMolFile

> <Tox>
-8.824

> <CAS>
66230-04-4

$$$$

  CDK

 16 17  0  0  0  0  0  0  0  0999 V2000
    1.4241   -0.8429    0.0000 C   0  0  0  0  0  0  0  0  0  0  0  0
    2.1386   -0.4304    0.0000 C   0  0  0  0  0  0  0  0  0  0  0  0
    0.7097   -0.4304    0.0000 C   0  0  0  0  0  0  0  0  0  0  0  0
    2.8531   -0.8429    0.0000 Cl  0  0  0  0  0  0  0  0  0  0  0  0
    2.1386    0.3946    0.0000 C   0  0  0  0  0  0  0  0  0  0  0  0
    0.7097    0.3946    0.0000 C   0  0  0  0  0  0  0  0  0  0  0  0
   -0.0048   -0.8429    0.0000 O   0  0  0  0  0  0  0  0  0  0  0  0
    1.4241    0.8071    0.0000 C   0  0  0  0  0  0  0  0  0  0  0  0
   -0.7193   -0.4304    0.0000 C   0  0  0  0  0  0  0  0  0  0  0  0
   -0.7193    0.3946    0.0000 C   0  0  0  0  0  0  0  0  0  0  0  0
   -1.4337   -0.8429    0.0000 C   0  0  0  0  0  0  0  0  0  0  0  0
   -1.4337    0.8071    0.0000 C   0  0  0  0  0  0  0  0  0  0  0  0
   -2.1482   -0.4304    0.0000 C   0  0  0  0  0  0  0  0  0  0  0  0
   -1.4337    1.6321    0.0000 Cl  0  0  0  0  0  0  0  0  0  0  0  0
   -2.1482    0.3946    0.0000 C   0  0  0  0  0  0  0  0  0  0  0  0
   -2.8627    0.8071    0.0000 Cl  0  0  0  0  0  0  0  0  0  0  0  0
  1  2  1  0  0  0  0 
  1  3  2  0  0  0  0 
  2  4  1  0  0  0  0 
  2  5  2  0  0  0  0 
  6  3  1  0  0  0  0 
  3  7  1  0  0  0  0 
  5  8  1  0  0  0  0 
  8  6  2  0  0  0  0 
  7  9  1  0  0  0  0 
  9 10  1  0  0  0  0 
  9 11  2  0  0  0  0 
 10 12  2  0  0  0  0 
 13 11  1  0  0  0  0 
 12 14  1  0  0  0  0 
 12 15  1  0  0  0  0 
 15 13  2  0  0  0  0 
 15 16  1  0  0  0  0 
M  END
> <Name>
3,3',4-Trichlorodiphenyl ether

> <Source>
Smiles

> <Tox>
-3.907

> <CAS>
66794-60-3

$$$$

  CDK

 18 20  0  0  0  0  0  0  0  0999 V2000
    3.6380    2.0988    0.0000 C   0  0  0  0  0  0  0  0  0  0  0  0
    3.6380    0.6996    0.0000 C   0  0  0  0  0  0  0  0  0  0  0  0
    4.8506    2.7984    0.0000 O   0  0  0  0  0  0  0  0  0  0  0  0
    2.4253    2.7984    0.0000 C   0  0  0  0  0  0  0  0  0  0  0  0
    4.8506    0.0000    0.0000 O   0  0  0  0  0  0  0  0  0  0  0  0
    2.4253    0.0000    0.0000 C   0  0  0  0  0  0  0  0  0  0  0  0
    6.0633    2.0988    0.0000 C   0  0  0  0  0  0  0  0  0  0  0  0
    1.2127    2.0988    0.0000 C   0  0  0  0  0  0  0  0  0  0  0  0
    6.0633    0.6996    0.0000 C   0  0  0  0  0  0  0  0  0  0  0  0
    1.2127    0.6996    0.0000 C   0  0  0  0  0  0  0  0  0  0  0  0
    7.2760    2.7984    0.0000 C   0  0  0  0  0  0  0  0  0  0  0  0
    7.2760    0.0000    0.0000 C   0  0  0  0  0  0  0  0  0  0  0  0
    0.0000    0.0000    0.0000 Cl  0  0  0  0  0  0  0  0  0  0  0  0
    8.4886    2.0988    0.0000 C   0  0  0  0  0  0  0  0  0  0  0  0
    7.2760    4.1977    0.0000 Cl  0  0  0  0  0  0  0  0  0  0  0  0
    8.4886    0.6996    0.0000 C   0  0  0  0  0  0  0  0  0  0  0  0
    9.7013    2.7984    0.0000 Cl  0  0  0  0  0  0  0  0  0  0  0  0
    9.7013    0.0000    0.0000 Cl  0  0  0  0  0  0  0  0  0  0  0  0
  1  2  2  0  0  0  0 
  1  3  1  0  0  0  0 
  1  4  1  0  0  0  0 
  2  5  1  0  0  0  0 
  2  6  1  0  0  0  0 
  7  3  1  0  0  0  0 
  4  8  2  0  0  0  0 
  5  9  1  0  0  0  0 
 10  6  2  0  0  0  0 
  9  7  2  0  0  0  0 
  7 11  1  0  0  0  0 
  8 10  1  0  0  0  0 
  9 12  1  0  0  0  0 
 10 13  1  0  0  0  0 
 14 11  2  0  0  0  0 
 11 15  1  0  0  0  0 
 12 16  2  0  0  0  0 
 16 14  1  0  0  0  0 
 14 17  1  0  0  0  0 
 16 18  1  0  0  0  0 
M  END
> <Name>
1,2,3,7-TETRACHLORODIBENZODIOXIN

> <Source>
IndexNet2DMolFile

> <Tox>
-8.125

> <CAS>
67028-18-6

$$$$

  CDK

 24 25  0  0  0  0  0  0  0  0999 V2000
    4.5386    1.7456    0.0000 C   0  0  0  0  0  0  0  0  0  0  0  0
    4.9875    0.8479    0.0000 C   0  0  0  0  0  0  0  0  0  0  0  0
    3.4912    1.7456    0.0000 C   0  0  0  0  0  0  0  0  0  0  0  0
    4.5386    0.0000    0.0000 C   0  0  0  0  0  0  0  0  0  0  0  0
    2.9925    0.8479    0.0000 C   0  0  0  0  0  0  0  0  0  0  0  0
    2.9925    2.5935    0.0000 C   0  0  0  0  0  0  0  0  0  0  0  0
    3.5411    0.0000    0.0000 C   0  0  0  0  0  0  0  0  0  0  0  0
    3.4912    3.4413    0.0000 C   0  0  0  0  0  0  0  0  0  0  0  0
    4.5386    3.4413    0.0000 O   0  0  0  0  0  0  0  0  0  0  0  0
    2.9925    4.3391    0.0000 N   0  0  0  0  0  0  0  0  0  0  0  0
    3.4912    5.1869    0.0000 C   0  0  0  0  0  0  0  0  0  0  0  0
    1.9950    4.3391    0.0000 C   0  0  0  0  0  0  0  0  0  0  0  0
    4.5386    5.1869    0.0000 C   0  0  0  0  0  0  0  0  0  0  0  0
    2.9925    6.0348    0.0000 C   0  0  0  0  0  0  0  0  0  0  0  0
    1.4962    5.1869    0.0000 C   0  0  0  0  0  0  0  0  0  0  0  0
    1.4962    3.4413    0.0000 C   0  0  0  0  0  0  0  0  0  0  0  0
    4.9875    6.0348    0.0000 O   0  0  0  0  0  0  0  0  0  0  0  0
    4.9875    4.3391    0.0000 O   0  0  0  0  0  0  0  0  0  0  0  0
    1.9950    6.0348    0.0000 C   0  0  0  0  0  0  0  0  0  0  0  0
    0.5486    5.1869    0.0000 C   0  0  0  0  0  0  0  0  0  0  0  0
    1.9950    2.5935    0.0000 C   0  0  0  0  0  0  0  0  0  0  0  0
    0.5486    3.4413    0.0000 C   0  0  0  0  0  0  0  0  0  0  0  0
    6.0348    6.0348    0.0000 C   0  0  0  0  0  0  0  0  0  0  0  0
    0.0000    4.3391    0.0000 C   0  0  0  0  0  0  0  0  0  0  0  0
  1  2  2  0  0  0  0 
  3  1  1  0  0  0  0 
  2  4  1  0  0  0  0 
  5  3  2  0  0  0  0 
  3  6  1  0  0  0  0 
  4  7  2  0  0  0  0 
  7  5  1  0  0  0  0 
  6  8  1  0  0  0  0 
  8  9  2  0  0  0  0 
  8 10  1  0  0  0  0 
 11 10  1  0  0  0  0 
 10 12  1  0  0  0  0 
 13 11  1  0  0  0  0 
 14 11  1  0  0  0  0 
 15 12  2  0  0  0  0 
 12 16  1  0  0  0  0 
 17 13  1  0  0  0  0 
 18 13  2  0  0  0  0 
 19 15  1  0  0  0  0 
 20 15  1  0  0  0  0 
 21 16  1  0  0  0  0 
 16 22  2  0  0  0  0 
 23 17  1  0  0  0  0 
 24 20  2  0  0  0  0 
 22 24  1  0  0  0  0 
M  END
> <Name>
BENALAXYL

> <Source>
NIST2DMolFile

> <Tox>
-5.000

> <CAS>
71626-11-4

$$$$

  CDK

 21 23  0  0  0  0  0  0  0  0999 V2000
    0.0000    1.5173    0.0000 C   0  0  0  0  0  0  0  0  0  0  0  0
    0.0000    0.5058    0.0000 C   0  0  0  0  0  0  0  0  0  0  0  0
    0.9104    1.9725    0.0000 C   0  0  0  0  0  0  0  0  0  0  0  0
    0.9104    0.0000    0.0000 C   0  0  0  0  0  0  0  0  0  0  0  0
    1.7196    1.5173    0.0000 C   0  0  0  0  0  0  0  0  0  0  0  0
    1.7196    0.5058    0.0000 C   0  0  0  0  0  0  0  0  0  0  0  0
    2.6805    1.8207    0.0000 S   0  0  0  0  0  0  0  0  0  0  0  0
    2.6805    0.1517    0.0000 N   0  0  0  0  0  0  0  0  0  0  0  0
    3.2874    1.0115    0.0000 C   0  0  0  0  0  0  0  0  0  0  0  0
    4.2990    1.0115    0.0000 O   0  0  0  0  0  0  0  0  0  0  0  0
    4.8047    1.8207    0.0000 C   0  0  0  0  0  0  0  0  0  0  0  0
    5.8162    1.8207    0.0000 C   0  0  0  0  0  0  0  0  0  0  0  0
    6.3220    2.6805    0.0000 N   0  0  0  0  0  0  0  0  0  0  0  0
    6.3220    1.0115    0.0000 O   0  0  0  0  0  0  0  0  0  0  0  0
    7.3335    2.6805    0.0000 C   0  0  0  0  0  0  0  0  0  0  0  0
    5.8162    3.5909    0.0000 C   0  0  0  0  0  0  0  0  0  0  0  0
    7.8393    1.8207    0.0000 C   0  0  0  0  0  0  0  0  0  0  0  0
    7.8393    3.5403    0.0000 C   0  0  0  0  0  0  0  0  0  0  0  0
    8.8002    1.8207    0.0000 C   0  0  0  0  0  0  0  0  0  0  0  0
    8.8002    3.5909    0.0000 C   0  0  0  0  0  0  0  0  0  0  0  0
    9.3060    2.6805    0.0000 C   0  0  0  0  0  0  0  0  0  0  0  0
  2  1  2  0  0  0  0 
  1  3  1  0  0  0  0 
  4  2  1  0  0  0  0 
  3  5  2  0  0  0  0 
  6  4  2  0  0  0  0 
  6  5  1  0  0  0  0 
  5  7  1  0  0  0  0 
  8  6  1  0  0  0  0 
  7  9  1  0  0  0  0 
  9  8  2  0  0  0  0 
  9 10  1  0  0  0  0 
 10 11  1  0  0  0  0 
 11 12  1  0  0  0  0 
 12 13  1  0  0  0  0 
 12 14  2  0  0  0  0 
 13 15  1  0  0  0  0 
 13 16  1  0  0  0  0 
 17 15  2  0  0  0  0 
 15 18  1  0  0  0  0 
 19 17  1  0  0  0  0 
 18 20  2  0  0  0  0 
 21 19  2  0  0  0  0 
 20 21  1  0  0  0  0 
M  END
> <Name>
MEFENACET

> <Source>
NIST2DMolFile

> <Tox>
-8.319

> <CAS>
73250-68-7

$$$$

  CDK

 18 19  0  0  0  0  0  0  0  0999 V2000
    8.4544    1.4160    0.0000 N   0  0  0  0  0  0  0  0  0  0  0  0
    7.2467    2.1240    0.0000 C   0  0  0  0  0  0  0  0  0  0  0  0
    6.0389    1.4160    0.0000 C   0  0  0  0  0  0  0  0  0  0  0  0
    7.2467    3.4984    0.0000 C   0  0  0  0  0  0  0  0  0  0  0  0
    6.0389    0.0000    0.0000 Cl  0  0  0  0  0  0  0  0  0  0  0  0
    4.8311    2.1240    0.0000 C   0  0  0  0  0  0  0  0  0  0  0  0
    6.0389    4.2064    0.0000 C   0  0  0  0  0  0  0  0  0  0  0  0
    8.4544    4.2064    0.0000 N   0  0  0  0  0  0  0  0  0  0  0  0
    3.6233    1.4160    0.0000 O   0  0  0  0  0  0  0  0  0  0  0  0
    4.8311    3.4984    0.0000 C   0  0  0  0  0  0  0  0  0  0  0  0
    9.6622    3.4984    0.0000 O   0  0  0  0  0  0  0  0  0  0  0  0
    8.4544    5.5808    0.0000 O   0  0  0  0  0  0  0  0  0  0  0  0
    2.4156    2.1240    0.0000 C   0  0  0  0  0  0  0  0  0  0  0  0
    1.2078    1.4160    0.0000 C   0  0  0  0  0  0  0  0  0  0  0  0
    2.4156    3.4984    0.0000 C   0  0  0  0  0  0  0  0  0  0  0  0
    0.0000    2.1240    0.0000 C   0  0  0  0  0  0  0  0  0  0  0  0
    1.2078    4.2064    0.0000 C   0  0  0  0  0  0  0  0  0  0  0  0
    0.0000    3.4984    0.0000 C   0  0  0  0  0  0  0  0  0  0  0  0
  1  2  1  0  0  0  0 
  2  3  2  0  0  0  0 
  2  4  1  0  0  0  0 
  3  5  1  0  0  0  0 
  3  6  1  0  0  0  0 
  7  4  2  0  0  0  0 
  4  8  1  0  0  0  0 
  6  9  1  0  0  0  0 
  6 10  2  0  0  0  0 
 10  7  1  0  0  0  0 
  8 11  2  0  0  0  0 
  8 12  1  0  0  0  0 
  9 13  1  0  0  0  0 
 13 14  2  0  0  0  0 
 13 15  1  0  0  0  0 
 14 16  1  0  0  0  0 
 17 15  2  0  0  0  0 
 16 18  2  0  0  0  0 
 18 17  1  0  0  0  0 
M  CHG  1   8   1
M  CHG  1  12  -1
M  END
> <Name>
ACLONIFEN

> <Source>
IndexNet2DMolFile

> <Tox>
-6.921

> <CAS>
74070-46-5

$$$$

  CDK

 29 31  0  0  0  0  0  0  0  0999 V2000
    5.3331   -1.0370    0.0000 C   0  0  0  0  0  0  0  0  0  0  0  0
    4.6253   -2.2057    0.0000 C   0  0  0  0  0  0  0  0  0  0  0  0
    5.9915   -2.2057    0.0000 C   0  0  0  0  0  0  0  0  0  0  0  0
    4.7735   -0.0000    0.0000 C   0  0  0  0  0  0  0  0  0  0  0  0
    5.9586   -0.0000    0.0000 C   0  0  0  0  0  0  0  0  0  0  0  0
    3.5060   -2.8641    0.0000 C   0  0  0  0  0  0  0  0  0  0  0  0
    7.1767   -2.8805    0.0000 C   0  0  0  0  0  0  0  0  0  0  0  0
    2.3374   -2.2057    0.0000 C   0  0  0  0  0  0  0  0  0  0  0  0
    8.3124   -2.2221    0.0000 O   0  0  0  0  0  0  0  0  0  0  0  0
    7.1767   -4.2138    0.0000 O   0  0  0  0  0  0  0  0  0  0  0  0
    1.1687   -2.8312    0.0000 C   0  0  0  0  0  0  0  0  0  0  0  0
    2.3374   -0.8559    0.0000 Cl  0  0  0  0  0  0  0  0  0  0  0  0
    9.4811   -2.8805    0.0000 C   0  0  0  0  0  0  0  0  0  0  0  0
    0.0000   -3.4731    0.0000 F   0  0  0  0  0  0  0  0  0  0  0  0
    0.5267   -1.6625    0.0000 F   0  0  0  0  0  0  0  0  0  0  0  0
    1.8106   -3.9998    0.0000 F   0  0  0  0  0  0  0  0  0  0  0  0
   10.6333   -2.2221    0.0000 C   0  0  0  0  0  0  0  0  0  0  0  0
   11.8020   -2.8641    0.0000 C   0  0  0  0  0  0  0  0  0  0  0  0
   10.6333   -0.8724    0.0000 C   0  0  0  0  0  0  0  0  0  0  0  0
   12.9542   -2.1892    0.0000 C   0  0  0  0  0  0  0  0  0  0  0  0
   11.8184   -4.1974    0.0000 C   0  0  0  0  0  0  0  0  0  0  0  0
   11.7855   -0.1811    0.0000 C   0  0  0  0  0  0  0  0  0  0  0  0
   14.1229   -2.8476    0.0000 C   0  0  0  0  0  0  0  0  0  0  0  0
   12.9542   -0.8395    0.0000 C   0  0  0  0  0  0  0  0  0  0  0  0
   14.1393   -4.1809    0.0000 C   0  0  0  0  0  0  0  0  0  0  0  0
   15.2751   -2.1563    0.0000 C   0  0  0  0  0  0  0  0  0  0  0  0
   15.3080   -4.8393    0.0000 C   0  0  0  0  0  0  0  0  0  0  0  0
   16.4438   -2.8147    0.0000 C   0  0  0  0  0  0  0  0  0  0  0  0
   16.4602   -4.1644    0.0000 C   0  0  0  0  0  0  0  0  0  0  0  0
  1  2  1  0  0  0  0 
  1  3  1  0  0  0  0 
  1  4  1  0  0  0  0 
  1  5  1  0  0  0  0 
  2  6  1  0  0  0  0 
  2  3  1  0  0  0  0 
  3  7  1  0  0  0  0 
  6  8  2  0  0  0  0 
  7  9  1  0  0  0  0 
  7 10  2  0  0  0  0 
 11  8  1  0  0  0  0 
  8 12  1  0  0  0  0 
  9 13  1  0  0  0  0 
 11 14  1  0  0  0  0 
 11 15  1  0  0  0  0 
 11 16  1  0  0  0  0 
 17 13  1  0  0  0  0 
 18 17  1  0  0  0  0 
 17 19  2  0  0  0  0 
 18 20  2  0  0  0  0 
 18 21  1  0  0  0  0 
 22 19  1  0  0  0  0 
 20 23  1  0  0  0  0 
 20 24  1  0  0  0  0 
 24 22  2  0  0  0  0 
 23 25  2  0  0  0  0 
 23 26  1  0  0  0  0 
 25 27  1  0  0  0  0 
 26 28  2  0  0  0  0 
 27 29  2  0  0  0  0 
 28 29  1  0  0  0  0 
M  END
> <Name>
Bifenthrin

> <Source>
DSSTox2DMolFile

> <Tox>
-6.745

> <CAS>
82657-04-3

$$$$

  CDK

 21 22  0  0  0  0  0  0  0  0999 V2000
    9.4123    3.7066    0.0000 C   0  0  0  0  0  0  0  0  0  0  0  0
    8.3295    4.6229    0.0000 C   0  0  0  0  0  0  0  0  0  0  0  0
    7.6631    5.8306    0.0000 C   0  0  0  0  0  0  0  0  0  0  0  0
    9.4123    5.5391    0.0000 C   0  0  0  0  0  0  0  0  0  0  0  0
    7.6631    3.4151    0.0000 C   0  0  0  0  0  0  0  0  0  0  0  0
    8.3295    2.2073    0.0000 O   0  0  0  0  0  0  0  0  0  0  0  0
    6.2471    3.4151    0.0000 C   0  0  0  0  0  0  0  0  0  0  0  0
    5.5391    4.6229    0.0000 C   0  0  0  0  0  0  0  0  0  0  0  0
    5.5391    2.2073    0.0000 N   0  0  0  0  0  0  0  0  0  0  0  0
    4.1647    4.6229    0.0000 C   0  0  0  0  0  0  0  0  0  0  0  0
    6.1222    0.9162    0.0000 C   0  0  0  0  0  0  0  0  0  0  0  0
    4.1647    2.0824    0.0000 N   0  0  0  0  0  0  0  0  0  0  0  0
    3.4567    3.4151    0.0000 C   0  0  0  0  0  0  0  0  0  0  0  0
    3.4567    5.8306    0.0000 C   0  0  0  0  0  0  0  0  0  0  0  0
    5.0393    0.0000    0.0000 N   0  0  0  0  0  0  0  0  0  0  0  0
    3.8316    0.7080    0.0000 C   0  0  0  0  0  0  0  0  0  0  0  0
    2.0824    3.4151    0.0000 C   0  0  0  0  0  0  0  0  0  0  0  0
    2.0824    5.8306    0.0000 C   0  0  0  0  0  0  0  0  0  0  0  0
    4.1647    7.0384    0.0000 Cl  0  0  0  0  0  0  0  0  0  0  0  0
    1.3744    4.6229    0.0000 C   0  0  0  0  0  0  0  0  0  0  0  0
    0.0000    4.6229    0.0000 Cl  0  0  0  0  0  0  0  0  0  0  0  0
  1  2  1  0  0  0  0 
  2  3  1  0  0  0  0 
  2  4  1  0  0  0  0 
  2  5  1  0  0  0  0 
  5  6  1  0  0  0  0 
  5  7  1  0  0  0  0 
  7  8  2  0  0  0  0 
  7  9  1  0  0  0  0 
  8 10  1  0  0  0  0 
  9 11  1  0  0  0  0 
  9 12  1  0  0  0  0 
 10 13  1  0  0  0  0 
 10 14  2  0  0  0  0 
 11 15  2  0  0  0  0 
 16 12  2  0  0  0  0 
 13 17  2  0  0  0  0 
 18 14  1  0  0  0  0 
 14 19  1  0  0  0  0 
 15 16  1  0  0  0  0 
 17 20  1  0  0  0  0 
 20 18  2  0  0  0  0 
 20 21  1  0  0  0  0 
M  END
> <Name>
DINICONAZOLE

> <Source>
IndexNet2DMolFile

> <Tox>
-4.434

> <CAS>
83657-24-3

$$$$

  CDK

 17 19  0  0  0  0  0  0  0  0999 V2000
   -1.9175   -2.9116   -0.0005 Cl  0  0  0  0  0  0  0  0  0  0  0  0
   -1.7577   -1.1969    0.0000 C   0  0  0  0  0  0  0  0  0  0  0  0
   -0.4872   -0.6235    0.0000 C   0  0  0  0  0  0  0  0  0  0  0  0
   -2.8403   -0.3126    0.0001 C   0  0  0  0  0  0  0  0  0  0  0  0
    0.6894   -1.3097    0.0000 O   0  0  0  0  0  0  0  0  0  0  0  0
   -0.2496    0.7475    0.0001 C   0  0  0  0  0  0  0  0  0  0  0  0
   -4.4586   -0.9559    0.0011 Cl  0  0  0  0  0  0  0  0  0  0  0  0
   -2.6454    1.0705    0.0000 C   0  0  0  0  0  0  0  0  0  0  0  0
    1.6924   -0.3881   -0.0001 C   0  0  0  0  0  0  0  0  0  0  0  0
    1.1678    0.9005    0.0001 C   0  0  0  0  0  0  0  0  0  0  0  0
   -1.3553    1.6179    0.0003 C   0  0  0  0  0  0  0  0  0  0  0  0
   -3.9671    2.1921   -0.0012 Cl  0  0  0  0  0  0  0  0  0  0  0  0
    3.0559   -0.6772   -0.0004 C   0  0  0  0  0  0  0  0  0  0  0  0
    2.0622    1.9868    0.0003 C   0  0  0  0  0  0  0  0  0  0  0  0
    3.6468   -2.2849    0.0000 Cl  0  0  0  0  0  0  0  0  0  0  0  0
    3.9249    0.4178   -0.0002 C   0  0  0  0  0  0  0  0  0  0  0  0
    3.4393    1.7273    0.0004 C   0  0  0  0  0  0  0  0  0  0  0  0
  1  2  1  0  0  0  0 
  3  2  2  0  0  0  0 
  2  4  1  0  0  0  0 
  5  3  1  0  0  0  0 
  6  3  1  0  0  0  0 
  7  4  1  0  0  0  0 
  8  4  2  0  0  0  0 
  5  9  1  0  0  0  0 
  6 10  1  0  0  0  0 
  6 11  2  0  0  0  0 
 12  8  1  0  0  0  0 
 11  8  1  0  0  0  0 
 10  9  2  0  0  0  0 
  9 13  1  0  0  0  0 
 10 14  1  0  0  0  0 
 15 13  1  0  0  0  0 
 13 16  2  0  0  0  0 
 14 17  2  0  0  0  0 
 17 16  1  0  0  0  0 
M  END
> <Name>
DIBENZOFURAN, 2,3,4,6-TETRACHLORO-

> <Source>
Chemidplus3DMolFile

> <Tox>
-7.400

> <CAS>
83704-30-7

$$$$

  CDK

 25 27  0  0  0  0  0  0  0  0999 V2000
    6.9923    1.8302    0.0000 C   0  0  0  0  0  0  0  0  0  0  0  0
    6.9923    0.4224    0.0000 N   0  0  0  0  0  0  0  0  0  0  0  0
    8.3532    2.2525    0.0000 N   0  0  0  0  0  0  0  0  0  0  0  0
    8.3532    0.0000    0.0000 C   0  0  0  0  0  0  0  0  0  0  0  0
    9.1510    1.1263    0.0000 N   0  0  0  0  0  0  0  0  0  0  0  0
    8.7756    3.6135    0.0000 C   0  0  0  0  0  0  0  0  0  0  0  0
    7.8370    4.6459    0.0000 C   0  0  0  0  0  0  0  0  0  0  0  0
    8.2593    5.9599    0.0000 N   0  0  0  0  0  0  0  0  0  0  0  0
    6.4761    4.3643    0.0000 S   0  0  0  0  0  0  0  0  0  0  0  0
    7.3208    7.0392    0.0000 C   0  0  0  0  0  0  0  0  0  0  0  0
    5.5375    5.3967    0.0000 C   0  0  0  0  0  0  0  0  0  0  0  0
    7.7901    8.3532    0.0000 C   0  0  0  0  0  0  0  0  0  0  0  0
    5.9599    6.7107    0.0000 C   0  0  0  0  0  0  0  0  0  0  0  0
    4.1297    5.1152    0.0000 C   0  0  0  0  0  0  0  0  0  0  0  0
    6.8515    9.4325    0.0000 C   0  0  0  0  0  0  0  0  0  0  0  0
    9.1510    8.6348    0.0000 Cl  0  0  0  0  0  0  0  0  0  0  0  0
    5.0213    7.7901    0.0000 C   0  0  0  0  0  0  0  0  0  0  0  0
    3.1911    6.1476    0.0000 C   0  0  0  0  0  0  0  0  0  0  0  0
    3.7073    3.7542    0.0000 C   0  0  0  0  0  0  0  0  0  0  0  0
    5.4437    9.1510    0.0000 C   0  0  0  0  0  0  0  0  0  0  0  0
    1.8302    5.8660    0.0000 C   0  0  0  0  0  0  0  0  0  0  0  0
    2.3464    3.4727    0.0000 C   0  0  0  0  0  0  0  0  0  0  0  0
    4.5051   10.1834    0.0000 Cl  0  0  0  0  0  0  0  0  0  0  0  0
    1.4078    4.5051    0.0000 C   0  0  0  0  0  0  0  0  0  0  0  0
    0.0000    4.2235    0.0000 Cl  0  0  0  0  0  0  0  0  0  0  0  0
  1  2  2  0  0  0  0 
  1  3  1  0  0  0  0 
  2  4  1  0  0  0  0 
  5  3  1  0  0  0  0 
  3  6  1  0  0  0  0 
  4  5  2  0  0  0  0 
  6  7  1  0  0  0  0 
  7  8  2  0  0  0  0 
  7  9  1  0  0  0  0 
  8 10  1  0  0  0  0 
  9 11  1  0  0  0  0 
 10 12  2  0  0  0  0 
 10 13  1  0  0  0  0 
 11 14  1  0  0  0  0 
 12 15  1  0  0  0  0 
 12 16  1  0  0  0  0 
 17 13  2  0  0  0  0 
 14 18  2  0  0  0  0 
 14 19  1  0  0  0  0 
 15 20  2  0  0  0  0 
 20 17  1  0  0  0  0 
 18 21  1  0  0  0  0 
 22 19  2  0  0  0  0 
 20 23  1  0  0  0  0 
 21 24  2  0  0  0  0 
 24 22  1  0  0  0  0 
 24 25  1  0  0  0  0 
M  END
> <Name>
Imibenconazole

> <Source>
IndexNet2DMolFile

> <Tox>
-9.195

> <CAS>
86598-92-7

$$$$

  CDK

 19 20  0  0  0  0  0  0  0  0999 V2000
    2.4156    0.7080    0.0000 C   0  0  0  0  0  0  0  0  0  0  0  0
    3.6233    0.0000    0.0000 O   0  0  0  0  0  0  0  0  0  0  0  0
    4.8311    0.7080    0.0000 N   0  0  0  0  0  0  0  0  0  0  0  0
    4.8311    2.0824    0.0000 C   0  0  0  0  0  0  0  0  0  0  0  0
    6.0389    2.7904    0.0000 C   0  0  0  0  0  0  0  0  0  0  0  0
    3.6233    2.7904    0.0000 C   0  0  0  0  0  0  0  0  0  0  0  0
    7.2467    2.0824    0.0000 C   0  0  0  0  0  0  0  0  0  0  0  0
    2.4156    2.0824    0.0000 C   0  0  0  0  0  0  0  0  0  0  0  0
    3.6233    4.2064    0.0000 C   0  0  0  0  0  0  0  0  0  0  0  0
    7.2467    0.7080    0.0000 C   0  0  0  0  0  0  0  0  0  0  0  0
    8.4544    2.7904    0.0000 C   0  0  0  0  0  0  0  0  0  0  0  0
    1.2078    2.7904    0.0000 C   0  0  0  0  0  0  0  0  0  0  0  0
    2.4156    4.8728    0.0000 C   0  0  0  0  0  0  0  0  0  0  0  0
    4.8311    4.8728    0.0000 Cl  0  0  0  0  0  0  0  0  0  0  0  0
    8.4544    0.0000    0.0000 C   0  0  0  0  0  0  0  0  0  0  0  0
    9.6622    2.0824    0.0000 N   0  0  0  0  0  0  0  0  0  0  0  0
    1.2078    4.2064    0.0000 C   0  0  0  0  0  0  0  0  0  0  0  0
    9.6622    0.7080    0.0000 C   0  0  0  0  0  0  0  0  0  0  0  0
    0.0000    4.8728    0.0000 Cl  0  0  0  0  0  0  0  0  0  0  0  0
  1  2  1  0  0  0  0 
  2  3  1  0  0  0  0 
  3  4  2  0  0  0  0 
  4  5  1  0  0  0  0 
  4  6  1  0  0  0  0 
  5  7  1  0  0  0  0 
  6  8  2  0  0  0  0 
  6  9  1  0  0  0  0 
  7 10  2  0  0  0  0 
  7 11  1  0  0  0  0 
  8 12  1  0  0  0  0 
 13  9  2  0  0  0  0 
  9 14  1  0  0  0  0 
 10 15  1  0  0  0  0 
 16 11  2  0  0  0  0 
 12 17  2  0  0  0  0 
 17 13  1  0  0  0  0 
 15 18  2  0  0  0  0 
 18 16  1  0  0  0  0 
 17 19  1  0  0  0  0 
M  END
> <Name>
PYRIFENOX

> <Source>
IndexNet2DMolFile

> <Tox>
-4.893

> <CAS>
88283-41-4

$$$$

  CDK

 20 21  0  0  0  0  0  0  0  0999 V2000
    4.6312   -4.6401    0.0000 C   0  0  0  0  0  0  0  0  0  0  0  0
    5.3259   -5.8069    0.0000 C   0  0  0  0  0  0  0  0  0  0  0  0
    5.7267   -3.9722    0.0000 C   0  0  0  0  0  0  0  0  0  0  0  0
    3.4645   -5.3259    0.0000 C   0  0  0  0  0  0  0  0  0  0  0  0
    3.9455   -3.4645    0.0000 C   0  0  0  0  0  0  0  0  0  0  0  0
    6.0206   -6.9736    0.0000 N   0  0  0  0  0  0  0  0  0  0  0  0
    6.8667   -4.6312    0.0000 N   0  0  0  0  0  0  0  0  0  0  0  0
    2.3156   -4.6580    0.0000 C   0  0  0  0  0  0  0  0  0  0  0  0
    3.4645   -6.6529    0.0000 C   0  0  0  0  0  0  0  0  0  0  0  0
    4.5956   -2.3067    0.0000 C   0  0  0  0  0  0  0  0  0  0  0  0
    6.8667   -5.9315    0.0000 N   0  0  0  0  0  0  0  0  0  0  0  0
    8.1225   -4.2305    0.0000 C   0  0  0  0  0  0  0  0  0  0  0  0
    1.1667   -5.3259    0.0000 C   0  0  0  0  0  0  0  0  0  0  0  0
    2.3156   -7.3298    0.0000 C   0  0  0  0  0  0  0  0  0  0  0  0
    3.9187   -1.1667    0.0000 C   0  0  0  0  0  0  0  0  0  0  0  0
    8.1225   -6.3501    0.0000 C   0  0  0  0  0  0  0  0  0  0  0  0
    8.9062   -5.2903    0.0000 N   0  0  0  0  0  0  0  0  0  0  0  0
    1.1667   -6.6529    0.0000 C   0  0  0  0  0  0  0  0  0  0  0  0
    4.5689   -0.0000    0.0000 C   0  0  0  0  0  0  0  0  0  0  0  0
    0.0000   -7.3387    0.0000 Cl  0  0  0  0  0  0  0  0  0  0  0  0
  1  2  1  0  0  0  0 
  1  3  1  0  0  0  0 
  1  4  1  0  0  0  0 
  1  5  1  0  0  0  0 
  2  6  3  0  0  0  0 
  7  3  1  0  0  0  0 
  4  8  1  0  0  0  0 
  4  9  2  0  0  0  0 
  5 10  1  0  0  0  0 
  7 11  1  0  0  0  0 
  7 12  1  0  0  0  0 
  8 13  2  0  0  0  0 
  9 14  1  0  0  0  0 
 10 15  1  0  0  0  0 
 11 16  2  0  0  0  0 
 17 12  2  0  0  0  0 
 18 13  1  0  0  0  0 
 18 14  2  0  0  0  0 
 15 19  1  0  0  0  0 
 17 16  1  0  0  0  0 
 18 20  1  0  0  0  0 
M  END
> <Name>
MYCLOBUTANIL

> <Source>
DSSTox2DMolFile

> <Tox>
-5.796

> <CAS>
88671-89-0

$$$$

  CDK

 40 45  0  0  0  0  0  0  0  0999 V2000
   -1.3907    0.8035    0.0000 O   0  0  0  0  0  0  0  0  0  0  0  0
   -2.1051    0.3910    0.0000 C   0  0  0  0  0  0  0  0  0  0  0  0
   -2.8196    0.8035    0.0000 O   0  0  0  0  0  0  0  0  0  0  0  0
   -2.1051   -0.4340    0.0000 C   0  0  0  0  0  0  0  0  0  0  0  0
   -3.5341    0.3910    0.0000 C   0  0  0  0  0  0  0  0  0  0  0  0
   -2.8196   -0.8465    0.0000 C   0  0  0  0  0  0  0  0  0  0  0  0
   -1.3907   -0.8465    0.0000 C   0  0  0  0  0  0  0  0  0  0  0  0
   -4.2486    0.8035    0.0000 C   0  0  0  0  0  0  0  0  0  0  0  0
   -3.5341   -0.4340    0.0000 C   0  0  0  0  0  0  0  0  0  0  0  0
   -3.2321   -1.5609    0.0000 O   0  0  0  0  0  0  0  0  0  0  0  0
   -1.4536   -1.6691    0.0000 C   0  0  0  0  0  0  0  0  0  0  0  0
   -0.6468   -0.4897    0.0000 C   0  0  0  0  0  0  0  0  0  0  0  0
   -4.9630    0.3910    0.0000 C   0  0  0  0  0  0  0  0  0  0  0  0
   -4.2486   -0.8465    0.0000 C   0  0  0  0  0  0  0  0  0  0  0  0
   -2.1975   -2.0258    0.0000 C   0  0  0  0  0  0  0  0  0  0  0  0
   -0.7727   -2.1349    0.0000 C   0  0  0  0  0  0  0  0  0  0  0  0
    0.0341   -0.9555    0.0000 C   0  0  0  0  0  0  0  0  0  0  0  0
   -4.9630   -0.4340    0.0000 C   0  0  0  0  0  0  0  0  0  0  0  0
   -2.2605   -2.8484    0.0000 C   0  0  0  0  0  0  0  0  0  0  0  0
   -0.8357   -2.9575    0.0000 C   0  0  0  0  0  0  0  0  0  0  0  0
   -0.0289   -1.7781    0.0000 C   0  0  0  0  0  0  0  0  0  0  0  0
    0.4466   -0.2411    0.0000 C   0  0  0  0  0  0  0  0  0  0  0  0
   -1.5796   -3.3142    0.0000 C   0  0  0  0  0  0  0  0  0  0  0  0
    1.2716   -0.2411    0.0000 C   0  0  0  0  0  0  0  0  0  0  0  0
    0.0341    0.4734    0.0000 C   0  0  0  0  0  0  0  0  0  0  0  0
    1.6841    0.4734    0.0000 C   0  0  0  0  0  0  0  0  0  0  0  0
    0.4466    1.1879    0.0000 C   0  0  0  0  0  0  0  0  0  0  0  0
    1.2716    1.1879    0.0000 C   0  0  0  0  0  0  0  0  0  0  0  0
    1.6841    1.9024    0.0000 O   0  0  0  0  0  0  0  0  0  0  0  0
    2.5091    1.9024    0.0000 C   0  0  0  0  0  0  0  0  0  0  0  0
    3.3341    1.9024    0.0000 C   0  0  0  0  0  0  0  0  0  0  0  0
    3.7466    1.1879    0.0000 C   0  0  0  0  0  0  0  0  0  0  0  0
    3.7466    2.6168    0.0000 C   0  0  0  0  0  0  0  0  0  0  0  0
    4.5716    1.1879    0.0000 C   0  0  0  0  0  0  0  0  0  0  0  0
    4.5716    2.6168    0.0000 C   0  0  0  0  0  0  0  0  0  0  0  0
    4.9841    1.9024    0.0000 C   0  0  0  0  0  0  0  0  0  0  0  0
    5.8091    1.9024    0.0000 C   0  0  0  0  0  0  0  0  0  0  0  0
    5.8091    2.7274    0.0000 F   0  0  0  0  0  0  0  0  0  0  0  0
    5.8091    1.0774    0.0000 F   0  0  0  0  0  0  0  0  0  0  0  0
    6.6341    1.9024    0.0000 F   0  0  0  0  0  0  0  0  0  0  0  0
  1  2  2  0  0  0  0 
  2  3  1  0  0  0  0 
  2  4  1  0  0  0  0 
  3  5  1  0  0  0  0 
  6  4  2  0  0  0  0 
  4  7  1  0  0  0  0 
  5  8  1  0  0  0  0 
  5  9  2  0  0  0  0 
  9  6  1  0  0  0  0 
  6 10  1  0  0  0  0 
  7 11  1  0  0  0  0 
  7 12  1  0  0  0  0 
  8 13  2  0  0  0  0 
 14  9  1  0  0  0  0 
 11 15  1  0  0  0  0 
 11 16  2  0  0  0  0 
 17 12  1  0  0  0  0 
 13 18  1  0  0  0  0 
 18 14  2  0  0  0  0 
 15 19  2  0  0  0  0 
 20 16  1  0  0  0  0 
 16 21  1  0  0  0  0 
 21 17  1  0  0  0  0 
 17 22  1  0  0  0  0 
 19 23  1  0  0  0  0 
 23 20  2  0  0  0  0 
 22 24  1  0  0  0  0 
 22 25  2  0  0  0  0 
 24 26  2  0  0  0  0 
 27 25  1  0  0  0  0 
 26 28  1  0  0  0  0 
 28 27  2  0  0  0  0 
 28 29  1  0  0  0  0 
 29 30  1  0  0  0  0 
 30 31  1  0  0  0  0 
 31 32  1  0  0  0  0 
 31 33  2  0  0  0  0 
 32 34  2  0  0  0  0 
 35 33  1  0  0  0  0 
 34 36  1  0  0  0  0 
 36 35  2  0  0  0  0 
 36 37  1  0  0  0  0 
 37 38  1  0  0  0  0 
 37 39  1  0  0  0  0 
 37 40  1  0  0  0  0 
M  END
> <Name>
Flocoumafen

> <Source>
Smiles

> <Tox>
-12.000

> <CAS>
90035-08-8

$$$$

  CDK

 18 19  0  0  0  0  0  0  0  0999 V2000
    1.6732    1.5211    0.0000 C   0  0  0  0  0  0  0  0  0  0  0  0
    0.8113    2.0282    0.0000 C   0  0  0  0  0  0  0  0  0  0  0  0
    2.5859    2.0282    0.0000 N   0  0  0  0  0  0  0  0  0  0  0  0
    1.6732    0.5070    0.0000 C   0  0  0  0  0  0  0  0  0  0  0  0
    0.0000    1.5211    0.0000 C   0  0  0  0  0  0  0  0  0  0  0  0
    3.4479    1.5211    0.0000 N   0  0  0  0  0  0  0  0  0  0  0  0
    0.8113    0.0000    0.0000 C   0  0  0  0  0  0  0  0  0  0  0  0
    0.0000    0.5070    0.0000 C   0  0  0  0  0  0  0  0  0  0  0  0
    4.3098    2.0282    0.0000 C   0  0  0  0  0  0  0  0  0  0  0  0
    4.3098    3.0422    0.0000 C   0  0  0  0  0  0  0  0  0  0  0  0
    5.2225    1.5211    0.0000 C   0  0  0  0  0  0  0  0  0  0  0  0
    5.1718    3.4986    0.0000 C   0  0  0  0  0  0  0  0  0  0  0  0
    6.0845    2.0282    0.0000 C   0  0  0  0  0  0  0  0  0  0  0  0
    6.0845    3.0422    0.0000 C   0  0  0  0  0  0  0  0  0  0  0  0
    6.9464    3.4986    0.0000 O   0  0  0  0  0  0  0  0  0  0  0  0
    7.8591    3.0422    0.0000 C   0  0  0  0  0  0  0  0  0  0  0  0
    8.7211    3.4986    0.0000 C   0  0  0  0  0  0  0  0  0  0  0  0
    9.5830    3.0422    0.0000 O   0  0  0  0  0  0  0  0  0  0  0  0
  2  1  2  0  0  0  0 
  1  3  1  0  0  0  0 
  1  4  1  0  0  0  0 
  5  2  1  0  0  0  0 
  3  6  2  0  0  0  0 
  4  7  2  0  0  0  0 
  8  5  2  0  0  0  0 
  6  9  1  0  0  0  0 
  7  8  1  0  0  0  0 
  9 10  2  0  0  0  0 
 11  9  1  0  0  0  0 
 10 12  1  0  0  0  0 
 13 11  2  0  0  0  0 
 12 14  2  0  0  0  0 
 14 13  1  0  0  0  0 
 14 15  1  0  0  0  0 
 15 16  1  0  0  0  0 
 16 17  1  0  0  0  0 
 17 18  1  0  0  0  0 
M  END
> <Name>
2-(4-(PHENYLAZO)PHENOXY)ETHANOL

> <Source>
NIST2DMolFile

> <Tox>
-7.676

> <CAS>
92245-57-3

$$$$

  CDK

 21 22  0  0  0  0  0  0  0  0999 V2000
    4.1044    1.3992    0.0000 O   0  0  0  0  0  0  0  0  0  0  0  0
    5.3170    2.0988    0.0000 C   0  0  0  0  0  0  0  0  0  0  0  0
    6.5297    1.3992    0.0000 C   0  0  0  0  0  0  0  0  0  0  0  0
    5.3170    3.4981    0.0000 N   0  0  0  0  0  0  0  0  0  0  0  0
    6.5297    0.0000    0.0000 Cl  0  0  0  0  0  0  0  0  0  0  0  0
    6.5297    4.1977    0.0000 C   0  0  0  0  0  0  0  0  0  0  0  0
    4.1044    4.1977    0.0000 C   0  0  0  0  0  0  0  0  0  0  0  0
    7.7424    3.4981    0.0000 C   0  0  0  0  0  0  0  0  0  0  0  0
    6.5297    5.5969    0.0000 C   0  0  0  0  0  0  0  0  0  0  0  0
    2.8917    3.4981    0.0000 C   0  0  0  0  0  0  0  0  0  0  0  0
    8.9550    4.1977    0.0000 C   0  0  0  0  0  0  0  0  0  0  0  0
    7.7424    2.0988    0.0000 C   0  0  0  0  0  0  0  0  0  0  0  0
    7.7424    6.2965    0.0000 C   0  0  0  0  0  0  0  0  0  0  0  0
    5.3170    6.2965    0.0000 C   0  0  0  0  0  0  0  0  0  0  0  0
    1.6324    4.1044    0.0000 C   0  0  0  0  0  0  0  0  0  0  0  0
    2.7518    2.0988    0.0000 S   0  0  0  0  0  0  0  0  0  0  0  0
    8.9550    5.5969    0.0000 C   0  0  0  0  0  0  0  0  0  0  0  0
    0.6996    3.0316    0.0000 C   0  0  0  0  0  0  0  0  0  0  0  0
    1.3059    5.4570    0.0000 O   0  0  0  0  0  0  0  0  0  0  0  0
    1.3992    1.8190    0.0000 C   0  0  0  0  0  0  0  0  0  0  0  0
    0.0000    5.8767    0.0000 C   0  0  0  0  0  0  0  0  0  0  0  0
  1  2  2  0  0  0  0 
  2  3  1  0  0  0  0 
  2  4  1  0  0  0  0 
  3  5  1  0  0  0  0 
  4  6  1  0  0  0  0 
  4  7  1  0  0  0  0 
  6  8  2  0  0  0  0 
  6  9  1  0  0  0  0 
 10  7  1  0  0  0  0 
  8 11  1  0  0  0  0 
  8 12  1  0  0  0  0 
 13  9  2  0  0  0  0 
  9 14  1  0  0  0  0 
 10 15  2  0  0  0  0 
 10 16  1  0  0  0  0 
 11 17  2  0  0  0  0 
 17 13  1  0  0  0  0 
 15 18  1  0  0  0  0 
 15 19  1  0  0  0  0 
 20 16  1  0  0  0  0 
 18 20  2  0  0  0  0 
 19 21  1  0  0  0  0 
M  END
> <Name>
Thenylchlor

> <Source>
IndexNet2DMolFile

> <Tox>
-6.678

> <CAS>
96491-05-3

$$$$

  CDK

 27 28  0  0  0  0  0  0  0  0999 V2000
    2.3062   -3.9782    0.0000 C   0  0  0  0  0  0  0  0  0  0  0  0
    2.3062   -2.6637    0.0000 C   0  0  0  0  0  0  0  0  0  0  0  0
    3.4593   -4.6470    0.0000 S   0  0  0  0  0  0  0  0  0  0  0  0
    1.1531   -4.6470    0.0000 C   0  0  0  0  0  0  0  0  0  0  0  0
    1.1531   -1.9949    0.0000 C   0  0  0  0  0  0  0  0  0  0  0  0
    3.4593   -1.9949    0.0000 C   0  0  0  0  0  0  0  0  0  0  0  0
    4.6124   -5.3158    0.0000 N   0  0  0  0  0  0  0  0  0  0  0  0
    4.1281   -3.4939    0.0000 O   0  0  0  0  0  0  0  0  0  0  0  0
    2.8020   -5.8001    0.0000 O   0  0  0  0  0  0  0  0  0  0  0  0
    0.0000   -3.9782    0.0000 C   0  0  0  0  0  0  0  0  0  0  0  0
    0.0000   -2.6637    0.0000 C   0  0  0  0  0  0  0  0  0  0  0  0
    3.4593   -0.6573    0.0000 O   0  0  0  0  0  0  0  0  0  0  0  0
    4.6124   -2.6637    0.0000 O   0  0  0  0  0  0  0  0  0  0  0  0
    5.7655   -4.6470    0.0000 C   0  0  0  0  0  0  0  0  0  0  0  0
    4.6124   -0.0000    0.0000 C   0  0  0  0  0  0  0  0  0  0  0  0
    6.9186   -5.3158    0.0000 N   0  0  0  0  0  0  0  0  0  0  0  0
    5.7655   -3.3209    0.0000 O   0  0  0  0  0  0  0  0  0  0  0  0
    8.0717   -4.6470    0.0000 C   0  0  0  0  0  0  0  0  0  0  0  0
    6.9186   -6.6418    0.0000 C   0  0  0  0  0  0  0  0  0  0  0  0
    8.0717   -3.3209    0.0000 N   0  0  0  0  0  0  0  0  0  0  0  0
    9.2248   -5.3158    0.0000 N   0  0  0  0  0  0  0  0  0  0  0  0
    9.2248   -2.6637    0.0000 C   0  0  0  0  0  0  0  0  0  0  0  0
   10.3779   -4.6470    0.0000 C   0  0  0  0  0  0  0  0  0  0  0  0
   10.3779   -3.3209    0.0000 N   0  0  0  0  0  0  0  0  0  0  0  0
    9.2248   -1.3376    0.0000 O   0  0  0  0  0  0  0  0  0  0  0  0
   11.5310   -5.3158    0.0000 C   0  0  0  0  0  0  0  0  0  0  0  0
    8.0717   -0.6573    0.0000 C   0  0  0  0  0  0  0  0  0  0  0  0
  1  2  1  0  0  0  0 
  1  3  1  0  0  0  0 
  1  4  2  0  0  0  0 
  2  5  2  0  0  0  0 
  2  6  1  0  0  0  0 
  3  7  1  0  0  0  0 
  3  8  2  0  0  0  0 
  3  9  2  0  0  0  0 
  4 10  1  0  0  0  0 
  5 11  1  0  0  0  0 
  6 12  1  0  0  0  0 
  6 13  2  0  0  0  0 
  7 14  1  0  0  0  0 
 10 11  2  0  0  0  0 
 12 15  1  0  0  0  0 
 14 16  1  0  0  0  0 
 14 17  2  0  0  0  0 
 16 18  1  0  0  0  0 
 16 19  1  0  0  0  0 
 18 20  2  0  0  0  0 
 18 21  1  0  0  0  0 
 20 22  1  0  0  0  0 
 21 23  2  0  0  0  0 
 22 24  2  0  0  0  0 
 22 25  1  0  0  0  0 
 23 26  1  0  0  0  0 
 23 24  1  0  0  0  0 
 25 27  1  0  0  0  0 
M  END
> <Name>
Tribenuron-methyl

> <Source>
DSSTox2DMolFile

> <Tox>
-9.409

> <CAS>
101200-48-0

$$$$

  CDK

 15 17  0  0  0  0  0  0  0  0999 V2000
   -5.1508   -1.1180   -0.0002 I   0  0  0  0  0  0  0  0  0  0  0  0
   -3.2568   -0.2636    0.0001 C   0  0  0  0  0  0  0  0  0  0  0  0
   -2.1249   -1.0793    0.0000 C   0  0  0  0  0  0  0  0  0  0  0  0
   -3.1196    1.1256    0.0002 C   0  0  0  0  0  0  0  0  0  0  0  0
   -0.8566   -0.4996   -0.0001 C   0  0  0  0  0  0  0  0  0  0  0  0
   -1.8500    1.7041    0.0002 C   0  0  0  0  0  0  0  0  0  0  0  0
    0.2276   -1.3401   -0.0002 O   0  0  0  0  0  0  0  0  0  0  0  0
   -0.7197    0.8877   -0.0001 C   0  0  0  0  0  0  0  0  0  0  0  0
    1.4554   -0.7280    0.0000 C   0  0  0  0  0  0  0  0  0  0  0  0
    0.5081    1.4999   -0.0002 O   0  0  0  0  0  0  0  0  0  0  0  0
    1.5924    0.6594   -0.0001 C   0  0  0  0  0  0  0  0  0  0  0  0
    2.5859   -1.5444    0.0002 C   0  0  0  0  0  0  0  0  0  0  0  0
    2.8607    1.2389   -0.0002 C   0  0  0  0  0  0  0  0  0  0  0  0
    3.8555   -0.9659    0.0002 C   0  0  0  0  0  0  0  0  0  0  0  0
    3.9926    0.4233    0.0000 C   0  0  0  0  0  0  0  0  0  0  0  0
  1  2  1  0  0  0  0 
  3  2  2  0  0  0  0 
  2  4  1  0  0  0  0 
  5  3  1  0  0  0  0 
  6  4  2  0  0  0  0 
  7  5  1  0  0  0  0 
  5  8  2  0  0  0  0 
  8  6  1  0  0  0  0 
  7  9  1  0  0  0  0 
 10  8  1  0  0  0  0 
  9 11  1  0  0  0  0 
  9 12  2  0  0  0  0 
 10 11  1  0  0  0  0 
 11 13  2  0  0  0  0 
 12 14  1  0  0  0  0 
 13 15  1  0  0  0  0 
 14 15  2  0  0  0  0 
M  END
> <Name>
2-MONOIODODIBENZO-P-DIOXIN

> <Source>
Chemidplus3DMolFile

> <Tox>
-4.502

> <CAS>
101714-96-9

$$$$

  CDK

 16 17  0  0  0  0  0  0  0  0999 V2000
   -1.0978    3.1445    0.0001 Cl  0  0  0  0  0  0  0  0  0  0  0  0
   -1.0613    1.3944   -0.0002 C   0  0  0  0  0  0  0  0  0  0  0  0
    0.1638    0.7077   -0.0001 C   0  0  0  0  0  0  0  0  0  0  0  0
   -2.2688    0.6957    0.0000 C   0  0  0  0  0  0  0  0  0  0  0  0
    0.1638   -0.7076    0.0003 C   0  0  0  0  0  0  0  0  0  0  0  0
    1.3888    1.3944   -0.0004 C   0  0  0  0  0  0  0  0  0  0  0  0
   -3.7840    1.5636   -0.0004 Cl  0  0  0  0  0  0  0  0  0  0  0  0
   -2.2687   -0.6960    0.0004 C   0  0  0  0  0  0  0  0  0  0  0  0
   -1.0611   -1.3944    0.0005 C   0  0  0  0  0  0  0  0  0  0  0  0
    1.3889   -1.3944    0.0004 C   0  0  0  0  0  0  0  0  0  0  0  0
    2.5965    0.6959   -0.0003 C   0  0  0  0  0  0  0  0  0  0  0  0
   -3.7838   -1.5637    0.0008 Cl  0  0  0  0  0  0  0  0  0  0  0  0
   -1.0973   -3.1445   -0.0015 Cl  0  0  0  0  0  0  0  0  0  0  0  0
    2.5966   -0.6958    0.0001 C   0  0  0  0  0  0  0  0  0  0  0  0
    4.0621    1.6148    0.0001 Cl  0  0  0  0  0  0  0  0  0  0  0  0
    4.0623   -1.6144    0.0003 Cl  0  0  0  0  0  0  0  0  0  0  0  0
  1  2  1  0  0  0  0 
  3  2  1  0  0  0  0 
  2  4  2  0  0  0  0 
  3  5  1  0  0  0  0 
  3  6  2  0  0  0  0 
  7  4  1  0  0  0  0 
  4  8  1  0  0  0  0 
  5  9  1  0  0  0  0 
  5 10  2  0  0  0  0 
  6 11  1  0  0  0  0 
 12  8  1  0  0  0  0 
  9  8  2  0  0  0  0 
 13  9  1  0  0  0  0 
 10 14  1  0  0  0  0 
 15 11  1  0  0  0  0 
 11 14  2  0  0  0  0 
 16 14  1  0  0  0  0 
M  END
> <Name>
1,2,3,4,6,7-HEXACHLORONAPHTHALENE

> <Source>
Chemidplus3DMolFile

> <Tox>
-6.456

> <CAS>
103426-96-6

$$$$

  CDK

 16 17  0  0  0  0  0  0  0  0999 V2000
   -1.6788   -2.9437    0.0001 Cl  0  0  0  0  0  0  0  0  0  0  0  0
   -1.4022   -1.2160    0.0000 C   0  0  0  0  0  0  0  0  0  0  0  0
   -0.0957   -0.7011    0.0000 C   0  0  0  0  0  0  0  0  0  0  0  0
   -2.5043   -0.3607    0.0000 C   0  0  0  0  0  0  0  0  0  0  0  0
    0.0957    0.7012   -0.0001 C   0  0  0  0  0  0  0  0  0  0  0  0
    1.0253   -1.5472    0.0000 C   0  0  0  0  0  0  0  0  0  0  0  0
   -4.1265   -0.9971    0.0010 Cl  0  0  0  0  0  0  0  0  0  0  0  0
   -2.3163    1.0183   -0.0001 C   0  0  0  0  0  0  0  0  0  0  0  0
    1.4022    1.2160   -0.0001 C   0  0  0  0  0  0  0  0  0  0  0  0
   -1.0254    1.5473   -0.0001 C   0  0  0  0  0  0  0  0  0  0  0  0
    2.3164   -1.0183    0.0000 C   0  0  0  0  0  0  0  0  0  0  0  0
   -3.6341    2.1429   -0.0011 Cl  0  0  0  0  0  0  0  0  0  0  0  0
    1.6791    2.9436    0.0007 Cl  0  0  0  0  0  0  0  0  0  0  0  0
    2.5044    0.3606   -0.0001 C   0  0  0  0  0  0  0  0  0  0  0  0
    3.6339   -2.1429   -0.0008 Cl  0  0  0  0  0  0  0  0  0  0  0  0
    4.1265    0.9972    0.0005 Cl  0  0  0  0  0  0  0  0  0  0  0  0
  1  2  1  0  0  0  0 
  3  2  2  0  0  0  0 
  2  4  1  0  0  0  0 
  3  5  1  0  0  0  0 
  3  6  1  0  0  0  0 
  7  4  1  0  0  0  0 
  4  8  2  0  0  0  0 
  5  9  1  0  0  0  0 
  5 10  2  0  0  0  0 
  6 11  2  0  0  0  0 
 12  8  1  0  0  0  0 
 10  8  1  0  0  0  0 
 13  9  1  0  0  0  0 
  9 14  2  0  0  0  0 
 15 11  1  0  0  0  0 
 14 11  1  0  0  0  0 
 16 14  1  0  0  0  0 
M  END
> <Name>
1,2,3,5,6,7-Hexachloronaphthalene

> <Source>
Chemidplus3DMolFile

> <Tox>
-6.456

> <CAS>
103426-97-7

$$$$

  CDK

 16 17  0  0  0  0  0  0  0  0999 V2000
   -1.2023   -1.5342    0.0000 C   0  0  0  0  0  0  0  0  0  0  0  0
   -0.7898   -2.2487    0.0000 C   0  0  0  0  0  0  0  0  0  0  0  0
   -0.3773   -1.5342    0.0000 C   0  0  0  0  0  0  0  0  0  0  0  0
    0.3371   -1.1217    0.0000 C   0  0  0  0  0  0  0  0  0  0  0  0
    1.0516   -1.5342    0.0000 O   0  0  0  0  0  0  0  0  0  0  0  0
    0.3371   -0.2967    0.0000 C   0  0  0  0  0  0  0  0  0  0  0  0
    1.0516    0.1158    0.0000 C   0  0  0  0  0  0  0  0  0  0  0  0
   -0.3773    0.1158    0.0000 C   0  0  0  0  0  0  0  0  0  0  0  0
    1.7661   -0.2967    0.0000 O   0  0  0  0  0  0  0  0  0  0  0  0
    1.0516    0.9408    0.0000 C   0  0  0  0  0  0  0  0  0  0  0  0
   -0.3773    0.9408    0.0000 C   0  0  0  0  0  0  0  0  0  0  0  0
   -1.0918   -0.2967    0.0000 O   0  0  0  0  0  0  0  0  0  0  0  0
    0.3371    1.3533    0.0000 C   0  0  0  0  0  0  0  0  0  0  0  0
    0.0933    2.1414    0.0000 C   0  0  0  0  0  0  0  0  0  0  0  0
   -0.7111    2.3244    0.0000 O   0  0  0  0  0  0  0  0  0  0  0  0
    0.6540    2.7466    0.0000 O   0  0  0  0  0  0  0  0  0  0  0  0
  1  2  1  0  0  0  0 
  1  3  1  0  0  0  0 
  2  3  1  0  0  0  0 
  3  4  1  0  0  0  0 
  4  5  1  0  0  0  0 
  4  6  2  0  0  0  0 
  6  7  1  0  0  0  0 
  6  8  1  0  0  0  0 
  7  9  2  0  0  0  0 
  7 10  1  0  0  0  0 
 11  8  1  0  0  0  0 
  8 12  2  0  0  0  0 
 10 13  1  0  0  0  0 
 13 11  1  0  0  0  0 
 13 14  1  0  0  0  0 
 14 15  2  0  0  0  0 
 14 16  1  0  0  0  0 
M  END
> <Name>
TRINEXAPAC

> <Source>
Smiles

> <Tox>
-7.762

> <CAS>
104273-73-6

$$$$

  CDK

 15 17  0  0  0  0  0  0  0  0999 V2000
   -2.6231   -2.7698    0.0008 Br  0  0  0  0  0  0  0  0  0  0  0  0
   -2.3350   -0.8955   -0.0004 C   0  0  0  0  0  0  0  0  0  0  0  0
   -1.0519   -0.3493   -0.0003 C   0  0  0  0  0  0  0  0  0  0  0  0
   -3.4451   -0.0504   -0.0002 C   0  0  0  0  0  0  0  0  0  0  0  0
    0.0099   -1.2179   -0.0005 O   0  0  0  0  0  0  0  0  0  0  0  0
   -0.8787    1.0339    0.0000 C   0  0  0  0  0  0  0  0  0  0  0  0
   -3.2715    1.3348    0.0002 C   0  0  0  0  0  0  0  0  0  0  0  0
    1.2533   -0.6383   -0.0002 C   0  0  0  0  0  0  0  0  0  0  0  0
    0.3647    1.6137    0.0000 O   0  0  0  0  0  0  0  0  0  0  0  0
   -1.9871    1.8797    0.0003 C   0  0  0  0  0  0  0  0  0  0  0  0
    1.4267    0.7451   -0.0001 C   0  0  0  0  0  0  0  0  0  0  0  0
    2.3619   -1.4840   -0.0001 C   0  0  0  0  0  0  0  0  0  0  0  0
    2.7097    1.2911    0.0001 C   0  0  0  0  0  0  0  0  0  0  0  0
    3.6463   -0.9391    0.0001 C   0  0  0  0  0  0  0  0  0  0  0  0
    3.8198    0.4461    0.0002 C   0  0  0  0  0  0  0  0  0  0  0  0
  1  2  1  0  0  0  0 
  3  2  1  0  0  0  0 
  2  4  2  0  0  0  0 
  5  3  1  0  0  0  0 
  3  6  2  0  0  0  0 
  4  7  1  0  0  0  0 
  5  8  1  0  0  0  0 
  9  6  1  0  0  0  0 
  6 10  1  0  0  0  0 
 10  7  2  0  0  0  0 
  8 11  1  0  0  0  0 
  8 12  2  0  0  0  0 
  9 11  1  0  0  0  0 
 11 13  2  0  0  0  0 
 12 14  1  0  0  0  0 
 13 15  1  0  0  0  0 
 14 15  2  0  0  0  0 
M  END
> <Name>
1-MONOBROMODIBENZO-P-DIOXIN

> <Source>
Chemidplus3DMolFile

> <Tox>
-4.580

> <CAS>
105908-71-2

$$$$

  CDK

 27 29  0  0  0  0  0  0  0  0999 V2000
    6.9067   -2.0038    0.0000 N   0  0  0  0  0  0  0  0  0  0  0  0
    6.9067   -0.6715    0.0000 C   0  0  0  0  0  0  0  0  0  0  0  0
    8.0471   -2.6539    0.0000 C   0  0  0  0  0  0  0  0  0  0  0  0
    5.7555   -2.6539    0.0000 C   0  0  0  0  0  0  0  0  0  0  0  0
    8.0471   -0.0000    0.0000 C   0  0  0  0  0  0  0  0  0  0  0  0
    9.1982   -2.0038    0.0000 C   0  0  0  0  0  0  0  0  0  0  0  0
    5.7555   -3.9969    0.0000 C   0  0  0  0  0  0  0  0  0  0  0  0
    4.5938   -2.0038    0.0000 O   0  0  0  0  0  0  0  0  0  0  0  0
    9.1982   -0.6715    0.0000 O   0  0  0  0  0  0  0  0  0  0  0  0
    4.5938   -4.6577    0.0000 C   0  0  0  0  0  0  0  0  0  0  0  0
    3.4320   -3.9969    0.0000 C   0  0  0  0  0  0  0  0  0  0  0  0
    4.5938   -5.9794    0.0000 C   0  0  0  0  0  0  0  0  0  0  0  0
    2.2916   -4.6577    0.0000 C   0  0  0  0  0  0  0  0  0  0  0  0
    3.4320   -2.6539    0.0000 C   0  0  0  0  0  0  0  0  0  0  0  0
    5.7555   -6.6615    0.0000 C   0  0  0  0  0  0  0  0  0  0  0  0
    3.4320   -6.6615    0.0000 C   0  0  0  0  0  0  0  0  0  0  0  0
    1.1404   -3.9969    0.0000 C   0  0  0  0  0  0  0  0  0  0  0  0
    2.2916   -2.0038    0.0000 C   0  0  0  0  0  0  0  0  0  0  0  0
    5.7555   -7.9831    0.0000 C   0  0  0  0  0  0  0  0  0  0  0  0
    3.4320   -7.9831    0.0000 C   0  0  0  0  0  0  0  0  0  0  0  0
    1.1404   -2.6539    0.0000 C   0  0  0  0  0  0  0  0  0  0  0  0
    4.5938   -8.6546    0.0000 C   0  0  0  0  0  0  0  0  0  0  0  0
    6.9067   -8.6546    0.0000 O   0  0  0  0  0  0  0  0  0  0  0  0
    0.0000   -2.0038    0.0000 Cl  0  0  0  0  0  0  0  0  0  0  0  0
    4.5938   -9.9763    0.0000 O   0  0  0  0  0  0  0  0  0  0  0  0
    6.9067   -9.9763    0.0000 C   0  0  0  0  0  0  0  0  0  0  0  0
    3.4320  -10.6584    0.0000 C   0  0  0  0  0  0  0  0  0  0  0  0
  1  2  1  0  0  0  0 
  1  3  1  0  0  0  0 
  1  4  1  0  0  0  0 
  2  5  1  0  0  0  0 
  3  6  1  0  0  0  0 
  4  7  1  0  0  0  0 
  4  8  2  0  0  0  0 
  9  5  1  0  0  0  0 
  9  6  1  0  0  0  0 
  7 10  2  0  0  0  0 
 10 11  1  0  0  0  0 
 10 12  1  0  0  0  0 
 11 13  2  0  0  0  0 
 11 14  1  0  0  0  0 
 12 15  2  0  0  0  0 
 12 16  1  0  0  0  0 
 13 17  1  0  0  0  0 
 14 18  2  0  0  0  0 
 15 19  1  0  0  0  0 
 16 20  2  0  0  0  0 
 17 21  2  0  0  0  0 
 18 21  1  0  0  0  0 
 19 22  2  0  0  0  0 
 19 23  1  0  0  0  0 
 20 22  1  0  0  0  0 
 21 24  1  0  0  0  0 
 22 25  1  0  0  0  0 
 23 26  1  0  0  0  0 
 25 27  1  0  0  0  0 
M  END
> <Name>
DIMETHOMORPH

> <Source>
DSSTox2DMolFile

> <Tox>
-8.132

> <CAS>
110488-70-5

$$$$

  CDK

 30 33  0  0  0  0  0  0  0  0999 V2000
    1.2127    3.4981    0.0000 C   0  0  0  0  0  0  0  0  0  0  0  0
    1.2127    2.0988    0.0000 C   0  0  0  0  0  0  0  0  0  0  0  0
    2.4253    4.1977    0.0000 C   0  0  0  0  0  0  0  0  0  0  0  0
    2.4253    1.3992    0.0000 C   0  0  0  0  0  0  0  0  0  0  0  0
    0.0000    1.3992    0.0000 Cl  0  0  0  0  0  0  0  0  0  0  0  0
    3.5913    3.4981    0.0000 C   0  0  0  0  0  0  0  0  0  0  0  0
    3.5913    2.0988    0.0000 C   0  0  0  0  0  0  0  0  0  0  0  0
    4.8040    4.1977    0.0000 N   0  0  0  0  0  0  0  0  0  0  0  0
    4.8040    1.3992    0.0000 N   0  0  0  0  0  0  0  0  0  0  0  0
    6.0167    3.4981    0.0000 C   0  0  0  0  0  0  0  0  0  0  0  0
    6.0167    2.0988    0.0000 C   0  0  0  0  0  0  0  0  0  0  0  0
    7.2293    4.1977    0.0000 O   0  0  0  0  0  0  0  0  0  0  0  0
    8.4420    3.4981    0.0000 C   0  0  0  0  0  0  0  0  0  0  0  0
    8.4420    2.0988    0.0000 C   0  0  0  0  0  0  0  0  0  0  0  0
    9.6546    4.1977    0.0000 C   0  0  0  0  0  0  0  0  0  0  0  0
    9.6546    1.3992    0.0000 C   0  0  0  0  0  0  0  0  0  0  0  0
   10.8673    3.4981    0.0000 C   0  0  0  0  0  0  0  0  0  0  0  0
   10.8673    2.0988    0.0000 C   0  0  0  0  0  0  0  0  0  0  0  0
   12.0800    1.3992    0.0000 O   0  0  0  0  0  0  0  0  0  0  0  0
   13.2926    2.0988    0.0000 C   0  0  0  0  0  0  0  0  0  0  0  0
   14.5053    1.3992    0.0000 C   0  0  0  0  0  0  0  0  0  0  0  0
   13.2926    3.4981    0.0000 C   0  0  0  0  0  0  0  0  0  0  0  0
   15.7179    2.0988    0.0000 O   0  0  0  0  0  0  0  0  0  0  0  0
   14.5053    0.0000    0.0000 O   0  0  0  0  0  0  0  0  0  0  0  0
   16.9306    1.3992    0.0000 C   0  0  0  0  0  0  0  0  0  0  0  0
   18.1433    2.0988    0.0000 C   0  0  0  0  0  0  0  0  0  0  0  0
   19.4492    1.5391    0.0000 C   0  0  0  0  0  0  0  0  0  0  0  0
   18.2832    3.4981    0.0000 O   0  0  0  0  0  0  0  0  0  0  0  0
   20.3820    2.5652    0.0000 C   0  0  0  0  0  0  0  0  0  0  0  0
   19.6824    3.7779    0.0000 C   0  0  0  0  0  0  0  0  0  0  0  0
  1  2  2  0  0  0  0 
  1  3  1  0  0  0  0 
  2  4  1  0  0  0  0 
  2  5  1  0  0  0  0 
  6  3  2  0  0  0  0 
  4  7  2  0  0  0  0 
  7  6  1  0  0  0  0 
  6  8  1  0  0  0  0 
  7  9  1  0  0  0  0 
 10  8  2  0  0  0  0 
  9 11  2  0  0  0  0 
 11 10  1  0  0  0  0 
 10 12  1  0  0  0  0 
 12 13  1  0  0  0  0 
 13 14  2  0  0  0  0 
 13 15  1  0  0  0  0 
 14 16  1  0  0  0  0 
 17 15  2  0  0  0  0 
 16 18  2  0  0  0  0 
 18 17  1  0  0  0  0 
 18 19  1  0  0  0  0 
 19 20  1  0  0  0  0 
 20 21  1  0  0  0  0 
 20 22  1  0  0  0  0 
 21 23  1  0  0  0  0 
 21 24  2  0  0  0  0 
 23 25  1  0  0  0  0 
 25 26  1  0  0  0  0 
 26 27  1  0  0  0  0 
 26 28  1  0  0  0  0 
 27 29  1  0  0  0  0 
 30 28  1  0  0  0  0 
 29 30  1  0  0  0  0 
M  END
> <Name>
QUIZALOFOP-P-TEFURYL

> <Source>
IndexNet2DMolFile

> <Tox>
-7.227

> <CAS>
119738-06-6

$$$$

  CDK

 23 25  0  0  0  0  0  0  0  0999 V2000
    3.4151    1.3744    0.0000 C   0  0  0  0  0  0  0  0  0  0  0  0
    4.8311    1.3744    0.0000 C   0  0  0  0  0  0  0  0  0  0  0  0
    6.2471    1.3744    0.0000 C   0  0  0  0  0  0  0  0  0  0  0  0
    4.8311    0.0000    0.0000 C   0  0  0  0  0  0  0  0  0  0  0  0
    4.8311    2.7904    0.0000 C   0  0  0  0  0  0  0  0  0  0  0  0
    3.6233    3.4984    0.0000 C   0  0  0  0  0  0  0  0  0  0  0  0
    6.0389    3.4984    0.0000 C   0  0  0  0  0  0  0  0  0  0  0  0
    3.6233    4.8728    0.0000 C   0  0  0  0  0  0  0  0  0  0  0  0
    6.0389    4.8728    0.0000 C   0  0  0  0  0  0  0  0  0  0  0  0
    4.8311    5.5808    0.0000 C   0  0  0  0  0  0  0  0  0  0  0  0
    4.8311    6.9968    0.0000 C   0  0  0  0  0  0  0  0  0  0  0  0
    3.6233    7.6631    0.0000 C   0  0  0  0  0  0  0  0  0  0  0  0
    3.6233    9.0792    0.0000 O   0  0  0  0  0  0  0  0  0  0  0  0
    2.4156    9.7872    0.0000 C   0  0  0  0  0  0  0  0  0  0  0  0
    1.2078    9.0792    0.0000 N   0  0  0  0  0  0  0  0  0  0  0  0
    2.4156   11.1615    0.0000 C   0  0  0  0  0  0  0  0  0  0  0  0
    0.0000    9.7872    0.0000 C   0  0  0  0  0  0  0  0  0  0  0  0
    3.6233   11.8695    0.0000 C   0  0  0  0  0  0  0  0  0  0  0  0
    1.2078   11.8695    0.0000 C   0  0  0  0  0  0  0  0  0  0  0  0
    0.0000   11.1615    0.0000 N   0  0  0  0  0  0  0  0  0  0  0  0
    3.6233   13.2855    0.0000 C   0  0  0  0  0  0  0  0  0  0  0  0
    1.2078   13.2855    0.0000 C   0  0  0  0  0  0  0  0  0  0  0  0
    2.4156   13.9519    0.0000 C   0  0  0  0  0  0  0  0  0  0  0  0
  1  2  1  0  0  0  0 
  2  3  1  0  0  0  0 
  2  4  1  0  0  0  0 
  2  5  1  0  0  0  0 
  5  6  1  0  0  0  0 
  5  7  2  0  0  0  0 
  6  8  2  0  0  0  0 
  9  7  1  0  0  0  0 
  8 10  1  0  0  0  0 
 10  9  2  0  0  0  0 
 10 11  1  0  0  0  0 
 11 12  1  0  0  0  0 
 12 13  1  0  0  0  0 
 13 14  1  0  0  0  0 
 14 15  2  0  0  0  0 
 14 16  1  0  0  0  0 
 15 17  1  0  0  0  0 
 18 16  2  0  0  0  0 
 19 16  1  0  0  0  0 
 17 20  2  0  0  0  0 
 21 18  1  0  0  0  0 
 20 19  1  0  0  0  0 
 19 22  2  0  0  0  0 
 23 21  2  0  0  0  0 
 22 23  1  0  0  0  0 
M  END
> <Name>
FENAZAQUIN

> <Source>
IndexNet2DMolFile

> <Tox>
-7.593

> <CAS>
120928-09-8

$$$$

  CDK

 23 25  0  0  0  0  0  0  0  0999 V2000
    2.2511   -3.0562    0.0000 C   0  0  0  0  0  0  0  0  0  0  0  0
    1.8369   -4.3615    0.0000 C   0  0  0  0  0  0  0  0  0  0  0  0
    1.1725   -2.2668    0.0000 C   0  0  0  0  0  0  0  0  0  0  0  0
    3.5252   -3.0718    0.0000 O   0  0  0  0  0  0  0  0  0  0  0  0
    2.4778   -1.7665    0.0000 C   0  0  0  0  0  0  0  0  0  0  0  0
    0.4690   -4.3615    0.0000 C   0  0  0  0  0  0  0  0  0  0  0  0
    2.4934   -5.2448    0.0000 C   0  0  0  0  0  0  0  0  0  0  0  0
    0.0782   -3.0562    0.0000 C   0  0  0  0  0  0  0  0  0  0  0  0
    1.1725   -0.9458    0.0000 C   0  0  0  0  0  0  0  0  0  0  0  0
    3.7441   -1.3210    0.0000 N   0  0  0  0  0  0  0  0  0  0  0  0
    3.8144   -5.2448    0.0000 C   0  0  0  0  0  0  0  0  0  0  0  0
    0.0000   -0.2267    0.0000 C   0  0  0  0  0  0  0  0  0  0  0  0
    2.3606   -0.2579    0.0000 C   0  0  0  0  0  0  0  0  0  0  0  0
    4.8540   -2.0713    0.0000 N   0  0  0  0  0  0  0  0  0  0  0  0
    4.1661   -0.0000    0.0000 C   0  0  0  0  0  0  0  0  0  0  0  0
    4.4710   -6.4016    0.0000 C   0  0  0  0  0  0  0  0  0  0  0  0
    4.4710   -4.0880    0.0000 C   0  0  0  0  0  0  0  0  0  0  0  0
    5.9014   -1.2350    0.0000 C   0  0  0  0  0  0  0  0  0  0  0  0
    5.5027   -0.0000    0.0000 N   0  0  0  0  0  0  0  0  0  0  0  0
    5.8076   -6.4016    0.0000 C   0  0  0  0  0  0  0  0  0  0  0  0
    5.8076   -4.0880    0.0000 C   0  0  0  0  0  0  0  0  0  0  0  0
    6.4798   -5.2448    0.0000 C   0  0  0  0  0  0  0  0  0  0  0  0
    7.8164   -5.2448    0.0000 Cl  0  0  0  0  0  0  0  0  0  0  0  0
  1  2  1  0  0  0  0 
  1  3  1  0  0  0  0 
  1  4  1  0  0  0  0 
  1  5  1  0  0  0  0 
  2  6  1  0  0  0  0 
  2  7  1  0  0  0  0 
  8  3  1  0  0  0  0 
  3  9  1  0  0  0  0 
  5 10  1  0  0  0  0 
  6  8  1  0  0  0  0 
  7 11  1  0  0  0  0 
  9 12  1  0  0  0  0 
  9 13  1  0  0  0  0 
 10 14  1  0  0  0  0 
 10 15  1  0  0  0  0 
 11 16  2  0  0  0  0 
 11 17  1  0  0  0  0 
 14 18  2  0  0  0  0 
 19 15  2  0  0  0  0 
 16 20  1  0  0  0  0 
 17 21  2  0  0  0  0 
 18 19  1  0  0  0  0 
 20 22  2  0  0  0  0 
 21 22  1  0  0  0  0 
 22 23  1  0  0  0  0 
M  END
> <Name>
IPCONAZOLE

> <Source>
DSSTox2DMolFile

> <Tox>
-7.402

> <CAS>
125225-28-7

$$$$

  CDK

 22 23  0  0  0  0  0  0  0  0999 V2000
    3.5186   -0.1928   -2.3720 Cl  0  0  0  0  0  0  0  0  0  0  0  0
    3.1842   -0.6844   -0.7558 C   0  0  0  0  0  0  0  0  0  0  0  0
    2.2986    0.0302    0.0545 C   0  0  0  0  0  0  0  0  0  0  0  0
    3.7762   -1.8001   -0.2000 C   0  0  0  0  0  0  0  0  0  0  0  0
    1.6671    1.1592   -0.4327 N   0  0  0  0  0  0  0  0  0  0  0  0
    2.0365   -0.3627    1.3354 N   0  0  0  0  0  0  0  0  0  0  0  0
    3.5446   -2.2221    1.0605 N   0  0  0  0  0  0  0  0  0  0  0  0
    4.7384   -2.6352   -0.9804 C   0  0  0  0  0  0  0  0  0  0  0  0
    0.7360    1.9537    0.3448 C   0  0  0  0  0  0  0  0  0  0  0  0
    2.6771   -1.4678    1.7619 C   0  0  0  0  0  0  0  0  0  0  0  0
    0.6375    3.3780   -0.2269 C   0  0  0  0  0  0  0  0  0  0  0  0
   -0.6106    1.2599    0.3832 C   0  0  0  0  0  0  0  0  0  0  0  0
    1.9795    4.1002   -0.2276 C   0  0  0  0  0  0  0  0  0  0  0  0
   -1.1174    0.8401    1.5995 C   0  0  0  0  0  0  0  0  0  0  0  0
   -1.3000    1.0625   -0.7993 C   0  0  0  0  0  0  0  0  0  0  0  0
   -2.3567    0.2007    1.6343 C   0  0  0  0  0  0  0  0  0  0  0  0
   -2.5392    0.4232   -0.7643 C   0  0  0  0  0  0  0  0  0  0  0  0
   -3.0675   -0.0078    0.4524 C   0  0  0  0  0  0  0  0  0  0  0  0
   -4.2771   -0.6308    0.4877 O   0  0  0  0  0  0  0  0  0  0  0  0
   -4.6559   -1.3889   -0.6550 C   0  0  0  0  0  0  0  0  0  0  0  0
   -5.4567   -2.3997   -0.2289 F   0  0  0  0  0  0  0  0  0  0  0  0
   -5.4131   -0.6152   -1.4711 F   0  0  0  0  0  0  0  0  0  0  0  0
  1  2  1  0  0  0  0 
  3  2  1  0  0  0  0 
  2  4  2  0  0  0  0 
  5  3  1  0  0  0  0 
  6  3  2  0  0  0  0 
  7  4  1  0  0  0  0 
  4  8  1  0  0  0  0 
  5  9  1  0  0  0  0 
  6 10  1  0  0  0  0 
  7 10  2  0  0  0  0 
  9 11  1  0  0  0  0 
  9 12  1  0  0  0  0 
 11 13  1  0  0  0  0 
 12 14  2  0  0  0  0 
 12 15  1  0  0  0  0 
 14 16  1  0  0  0  0 
 15 17  2  0  0  0  0 
 16 18  2  0  0  0  0 
 17 18  1  0  0  0  0 
 19 18  1  0  0  0  0 
 19 20  1  0  0  0  0 
 21 20  1  0  0  0  0 
 22 20  1  0  0  0  0 
M  END
> <Name>
DIFLUMETORIM

> <Source>
Chemidplus3DMolFile

> <Tox>
-5.618

> <CAS>
130339-07-0

$$$$

  CDK

 19 20  0  0  0  0  0  0  0  0999 V2000
   -0.0000    0.8250    0.0000 O   0  0  0  0  0  0  0  0  0  0  0  0
   -0.7145    0.4125    0.0000 C   0  0  0  0  0  0  0  0  0  0  0  0
    0.7145    0.4125    0.0000 C   0  0  0  0  0  0  0  0  0  0  0  0
   -0.7145   -0.4125    0.0000 C   0  0  0  0  0  0  0  0  0  0  0  0
   -1.4289    0.8250    0.0000 C   0  0  0  0  0  0  0  0  0  0  0  0
    1.4289    0.8250    0.0000 C   0  0  0  0  0  0  0  0  0  0  0  0
    0.7145   -0.4125    0.0000 C   0  0  0  0  0  0  0  0  0  0  0  0
   -1.4289   -0.8250    0.0000 C   0  0  0  0  0  0  0  0  0  0  0  0
   -0.0000   -0.8250    0.0000 Br  0  0  0  0  0  0  0  0  0  0  0  0
   -2.1434    0.4125    0.0000 C   0  0  0  0  0  0  0  0  0  0  0  0
    2.1434    0.4125    0.0000 C   0  0  0  0  0  0  0  0  0  0  0  0
    1.4289    1.6500    0.0000 Br  0  0  0  0  0  0  0  0  0  0  0  0
    1.4289   -0.8250    0.0000 C   0  0  0  0  0  0  0  0  0  0  0  0
   -2.1434   -0.4125    0.0000 C   0  0  0  0  0  0  0  0  0  0  0  0
   -1.4289   -1.6500    0.0000 Br  0  0  0  0  0  0  0  0  0  0  0  0
    2.1434   -0.4125    0.0000 C   0  0  0  0  0  0  0  0  0  0  0  0
    1.4289   -1.6500    0.0000 Br  0  0  0  0  0  0  0  0  0  0  0  0
   -2.8579   -0.8250    0.0000 Br  0  0  0  0  0  0  0  0  0  0  0  0
    2.8579   -0.8250    0.0000 Br  0  0  0  0  0  0  0  0  0  0  0  0
  1  2  1  0  0  0  0 
  1  3  1  0  0  0  0 
  2  4  1  0  0  0  0 
  2  5  2  0  0  0  0 
  3  6  1  0  0  0  0 
  3  7  2  0  0  0  0 
  4  8  2  0  0  0  0 
  4  9  1  0  0  0  0 
 10  5  1  0  0  0  0 
  6 11  2  0  0  0  0 
  6 12  1  0  0  0  0 
 13  7  1  0  0  0  0 
  8 14  1  0  0  0  0 
  8 15  1  0  0  0  0 
 14 10  2  0  0  0  0 
 11 16  1  0  0  0  0 
 16 13  2  0  0  0  0 
 13 17  1  0  0  0  0 
 14 18  1  0  0  0  0 
 16 19  1  0  0  0  0 
M  END
> <Name>
2,2',3,4,4',5'-Hexabromodiphenyl ether

> <Source>
Name2DMolFile

> <Tox>
-8.553

> <CAS>
182677-30-1

$$$$
