
  CDK

  6  5  0  0  0  0  0  0  0  0999 V2000
    1.9943   -1.1509    0.0000 C   0  0  0  0  0  0  0  0  0  0  0  0
    3.3250   -1.1509    0.0000 O   0  0  0  0  0  0  0  0  0  0  0  0
    1.3307   -0.0000    0.0000 O   0  0  0  0  0  0  0  0  0  0  0  0
    1.3307   -2.3053    0.0000 C   0  0  0  0  0  0  0  0  0  0  0  0
    1.9943   -3.4563    0.0000 C   0  0  0  0  0  0  0  0  0  0  0  0
    0.0000   -2.3053    0.0000 O   0  0  0  0  0  0  0  0  0  0  0  0
  1  2  1  0  0  0  0 
  1  3  2  0  0  0  0 
  1  4  1  0  0  0  0 
  4  5  1  0  0  0  0 
  4  6  1  0  0  0  0 
M  END
> <Name>
LACTIC ACID

> <Source>
DSSTox2DMolFile

> <Tox>
-1.090

> <CAS>
50-21-5

$$$$

  CDK

 12 12  0  0  0  0  0  0  0  0999 V2000
    1.5225   -1.4118    0.0000 C   0  0  0  0  0  0  0  0  0  0  0  0
    0.6485   -0.2114    0.0000 C   0  0  0  0  0  0  0  0  0  0  0  0
    2.7413   -1.4667    0.0003 O   0  0  0  0  0  0  0  0  0  0  0  0
    0.9266   -2.6277   -0.0003 O   0  0  0  0  0  0  0  0  0  0  0  0
   -0.7535   -0.2983    0.0000 C   0  0  0  0  0  0  0  0  0  0  0  0
    1.2329    1.0660    0.0000 C   0  0  0  0  0  0  0  0  0  0  0  0
   -1.5304    0.8644    0.0000 C   0  0  0  0  0  0  0  0  0  0  0  0
   -1.5820   -1.7551    0.0001 Cl  0  0  0  0  0  0  0  0  0  0  0  0
    0.4446    2.2198    0.0000 C   0  0  0  0  0  0  0  0  0  0  0  0
    2.8946    1.3009   -0.0001 Cl  0  0  0  0  0  0  0  0  0  0  0  0
   -0.9373    2.1238    0.0000 C   0  0  0  0  0  0  0  0  0  0  0  0
   -3.2080    0.7443    0.0000 Cl  0  0  0  0  0  0  0  0  0  0  0  0
  1  2  1  0  0  0  0 
  1  3  2  0  0  0  0 
  1  4  1  0  0  0  0 
  2  5  1  0  0  0  0 
  2  6  2  0  0  0  0 
  5  7  2  0  0  0  0 
  5  8  1  0  0  0  0 
  9  6  1  0  0  0  0 
  6 10  1  0  0  0  0 
  7 11  1  0  0  0  0 
  7 12  1  0  0  0  0 
 11  9  2  0  0  0  0 
M  END
> <Name>
2,3,6-TRICHLOROBENZOIC ACID

> <Source>
DougDB3DMolFile

> <Tox>
-3.260

> <CAS>
50-31-7

$$$$

  CDK

 20 24  0  0  0  0  0  0  0  0999 V2000
    4.6494   -0.0000    0.0000 C   0  0  0  0  0  0  0  0  0  0  0  0
    5.9803   -0.0000    0.0000 C   0  0  0  0  0  0  0  0  0  0  0  0
    3.9926   -1.1494    0.0000 C   0  0  0  0  0  0  0  0  0  0  0  0
    6.6457   -1.1494    0.0000 C   0  0  0  0  0  0  0  0  0  0  0  0
    4.6494   -2.3074    0.0000 C   0  0  0  0  0  0  0  0  0  0  0  0
    2.6618   -1.1494    0.0000 C   0  0  0  0  0  0  0  0  0  0  0  0
    7.9766   -1.1494    0.0000 C   0  0  0  0  0  0  0  0  0  0  0  0
    5.9803   -2.3074    0.0000 C   0  0  0  0  0  0  0  0  0  0  0  0
    3.9926   -3.4568    0.0000 C   0  0  0  0  0  0  0  0  0  0  0  0
    1.9963   -2.3074    0.0000 C   0  0  0  0  0  0  0  0  0  0  0  0
    1.9963   -0.0000    0.0000 C   0  0  0  0  0  0  0  0  0  0  0  0
    8.6421   -2.3074    0.0000 C   0  0  0  0  0  0  0  0  0  0  0  0
    6.6457   -3.4568    0.0000 C   0  0  0  0  0  0  0  0  0  0  0  0
    4.6494   -4.6062    0.0000 C   0  0  0  0  0  0  0  0  0  0  0  0
    2.6618   -3.4568    0.0000 C   0  0  0  0  0  0  0  0  0  0  0  0
    0.6654   -2.3074    0.0000 C   0  0  0  0  0  0  0  0  0  0  0  0
    0.6654   -0.0000    0.0000 C   0  0  0  0  0  0  0  0  0  0  0  0
    7.9766   -3.4568    0.0000 C   0  0  0  0  0  0  0  0  0  0  0  0
    5.9803   -4.6062    0.0000 C   0  0  0  0  0  0  0  0  0  0  0  0
    0.0000   -1.1494    0.0000 C   0  0  0  0  0  0  0  0  0  0  0  0
  1  2  2  0  0  0  0 
  1  3  1  0  0  0  0 
  2  4  1  0  0  0  0 
  5  3  1  0  0  0  0 
  3  6  2  0  0  0  0 
  4  7  2  0  0  0  0 
  4  8  1  0  0  0  0 
  9  5  1  0  0  0  0 
  5  8  2  0  0  0  0 
  6 10  1  0  0  0  0 
  6 11  1  0  0  0  0 
  7 12  1  0  0  0  0 
 13  8  1  0  0  0  0 
 14  9  2  0  0  0  0 
  9 15  1  0  0  0  0 
 10 15  2  0  0  0  0 
 10 16  1  0  0  0  0 
 17 11  2  0  0  0  0 
 12 18  2  0  0  0  0 
 18 13  1  0  0  0  0 
 13 19  2  0  0  0  0 
 19 14  1  0  0  0  0 
 16 20  2  0  0  0  0 
 20 17  1  0  0  0  0 
M  END
> <Name>
BENZO(A)PYRENE

> <Source>
DSSTox2DMolFile

> <Tox>
-8.260

> <CAS>
50-32-8

$$$$

  CDK

 22 24  0  0  0  0  0  0  0  0999 V2000
    2.2682    5.6954    0.0000 C   0  0  0  0  0  0  0  0  0  0  0  0
    1.5625    5.4436    0.0000 C   0  0  0  0  0  0  0  0  0  0  0  0
    1.8649    4.5866    0.0000 C   0  0  0  0  0  0  0  0  0  0  0  0
    1.1592    4.2842    0.0000 C   0  0  0  0  0  0  0  0  0  0  0  0
    0.4033    4.5866    0.0000 N   0  0  0  0  0  0  0  0  0  0  0  0
    2.2178    3.8307    0.0000 C   0  0  0  0  0  0  0  0  0  0  0  0
    1.5625    3.4778    0.0000 C   0  0  0  0  0  0  0  0  0  0  0  0
    0.0000    5.4436    0.0000 C   0  0  0  0  0  0  0  0  0  0  0  0
    2.8225    3.4778    0.0000 C   0  0  0  0  0  0  0  0  0  0  0  0
    1.1088    2.6209    0.0000 C   0  0  0  0  0  0  0  0  0  0  0  0
    3.6795    2.9737    0.0000 O   0  0  0  0  0  0  0  0  0  0  0  0
    1.5625    1.7641    0.0000 O   0  0  0  0  0  0  0  0  0  0  0  0
    0.1008    2.6209    0.0000 O   0  0  0  0  0  0  0  0  0  0  0  0
    3.6795    2.0161    0.0000 C   0  0  0  0  0  0  0  0  0  0  0  0
    1.1088    0.8567    0.0000 C   0  0  0  0  0  0  0  0  0  0  0  0
    2.8225    1.5625    0.0000 O   0  0  0  0  0  0  0  0  0  0  0  0
    4.5363    1.5120    0.0000 C   0  0  0  0  0  0  0  0  0  0  0  0
    4.5363    0.5041    0.0000 C   0  0  0  0  0  0  0  0  0  0  0  0
    5.4436    2.0161    0.0000 C   0  0  0  0  0  0  0  0  0  0  0  0
    5.4940    0.0000    0.0000 C   0  0  0  0  0  0  0  0  0  0  0  0
    6.3508    1.5625    0.0000 C   0  0  0  0  0  0  0  0  0  0  0  0
    6.3508    0.5041    0.0000 C   0  0  0  0  0  0  0  0  0  0  0  0
  2  1  1  0  0  0  0 
  1  3  1  0  0  0  0 
  4  2  1  0  0  0  0 
  3  5  1  0  0  0  0 
  3  6  1  0  0  0  0 
  4  5  1  0  0  0  0 
  7  4  1  0  0  0  0 
  5  8  1  0  0  0  0 
  6  9  1  0  0  0  0 
  9  7  1  0  0  0  0 
  7 10  1  0  0  0  0 
  9 11  1  0  0  0  0 
 10 12  1  0  0  0  0 
 10 13  2  0  0  0  0 
 11 14  1  0  0  0  0 
 15 12  1  0  0  0  0 
 14 16  2  0  0  0  0 
 14 17  1  0  0  0  0 
 18 17  2  0  0  0  0 
 17 19  1  0  0  0  0 
 20 18  1  0  0  0  0 
 19 21  2  0  0  0  0 
 22 20  2  0  0  0  0 
 21 22  1  0  0  0  0 
M  END
> <Name>
COCAINE

> <Source>
NIST2DMolFile

> <Tox>
-6.719

> <CAS>
50-36-2

$$$$

  CDK

 11 11  0  0  0  0  0  0  0  0999 V2000
    4.6557   -1.1500    0.0000 O   0  0  0  0  0  0  0  0  0  0  0  0
    3.9900   -2.3046    0.0000 C   0  0  0  0  0  0  0  0  0  0  0  0
    4.6557   -3.4545    0.0000 O   0  0  0  0  0  0  0  0  0  0  0  0
    2.6584   -2.3046    0.0000 C   0  0  0  0  0  0  0  0  0  0  0  0
    1.9973   -3.4545    0.0000 C   0  0  0  0  0  0  0  0  0  0  0  0
    1.9973   -1.1500    0.0000 C   0  0  0  0  0  0  0  0  0  0  0  0
    0.6658   -3.4545    0.0000 C   0  0  0  0  0  0  0  0  0  0  0  0
    0.6658   -1.1500    0.0000 C   0  0  0  0  0  0  0  0  0  0  0  0
    2.6584   -0.0000    0.0000 Cl  0  0  0  0  0  0  0  0  0  0  0  0
    0.0000   -2.3046    0.0000 C   0  0  0  0  0  0  0  0  0  0  0  0
    0.0000   -0.0000    0.0000 Cl  0  0  0  0  0  0  0  0  0  0  0  0
  1  2  1  0  0  0  0 
  2  3  2  0  0  0  0 
  2  4  1  0  0  0  0 
  4  5  2  0  0  0  0 
  4  6  1  0  0  0  0 
  5  7  1  0  0  0  0 
  8  6  2  0  0  0  0 
  6  9  1  0  0  0  0 
  7 10  2  0  0  0  0 
 10  8  1  0  0  0  0 
  8 11  1  0  0  0  0 
M  END
> <Name>
Benzoic acid, 2,3-dichloro-

> <Source>
DSSTox2DMolFile

> <Tox>
-3.642

> <CAS>
50-45-3

$$$$

  CDK

 12 12  0  0  0  0  0  0  0  0999 V2000
    1.1974   -2.3792    0.0880 Cl  0  0  0  0  0  0  0  0  0  0  0  0
    0.1378   -1.0055    0.0285 C   0  0  0  0  0  0  0  0  0  0  0  0
    0.6848    0.2760   -0.0351 C   0  0  0  0  0  0  0  0  0  0  0  0
   -1.2468   -1.1728    0.0440 C   0  0  0  0  0  0  0  0  0  0  0  0
   -0.1529    1.3904   -0.0829 C   0  0  0  0  0  0  0  0  0  0  0  0
    2.1243    0.5093   -0.0546 C   0  0  0  0  0  0  0  0  0  0  0  0
   -1.9934   -2.7314    0.1225 Cl  0  0  0  0  0  0  0  0  0  0  0  0
   -2.0846   -0.0585   -0.0040 C   0  0  0  0  0  0  0  0  0  0  0  0
   -1.5375    1.2231   -0.0675 C   0  0  0  0  0  0  0  0  0  0  0  0
    2.5394    1.2643    0.9974 O   0  0  0  0  0  0  0  0  0  0  0  0
    2.9026    0.0860   -0.9121 O   0  0  0  0  0  0  0  0  0  0  0  0
   -2.5711    2.5982   -0.1244 Cl  0  0  0  0  0  0  0  0  0  0  0  0
  1  2  1  0  0  0  0 
  3  2  2  0  0  0  0 
  2  4  1  0  0  0  0 
  3  5  1  0  0  0  0 
  3  6  1  0  0  0  0 
  7  4  1  0  0  0  0 
  4  8  2  0  0  0  0 
  5  9  2  0  0  0  0 
 10  6  1  0  0  0  0 
 11  6  2  0  0  0  0 
  9  8  1  0  0  0  0 
 12  9  1  0  0  0  0 
M  END
> <Name>
Benzoic acid, 2,3,5-trichloro-

> <Source>
Chemidplus3DMolFile

> <Tox>
-3.507

> <CAS>
50-73-7

$$$$

  CDK

 13 13  0  0  0  0  0  0  0  0999 V2000
    0.0000   -5.7579    0.0000 O   0  0  0  0  0  0  0  0  0  0  0  0
    0.6622   -4.6063    0.0000 C   0  0  0  0  0  0  0  0  0  0  0  0
    0.0000   -3.4547    0.0000 O   0  0  0  0  0  0  0  0  0  0  0  0
    1.9922   -4.6063    0.0000 C   0  0  0  0  0  0  0  0  0  0  0  0
    2.6601   -3.4547    0.0000 C   0  0  0  0  0  0  0  0  0  0  0  0
    2.6601   -5.7579    0.0000 C   0  0  0  0  0  0  0  0  0  0  0  0
    3.9902   -3.4547    0.0000 C   0  0  0  0  0  0  0  0  0  0  0  0
    1.9922   -2.3031    0.0000 O   0  0  0  0  0  0  0  0  0  0  0  0
    3.9902   -5.7579    0.0000 C   0  0  0  0  0  0  0  0  0  0  0  0
    4.6524   -4.6063    0.0000 C   0  0  0  0  0  0  0  0  0  0  0  0
    2.6601   -1.1516    0.0000 C   0  0  0  0  0  0  0  0  0  0  0  0
    1.9922   -0.0000    0.0000 O   0  0  0  0  0  0  0  0  0  0  0  0
    3.9902   -1.1516    0.0000 C   0  0  0  0  0  0  0  0  0  0  0  0
  1  2  1  0  0  0  0 
  2  3  2  0  0  0  0 
  2  4  1  0  0  0  0 
  4  5  2  0  0  0  0 
  4  6  1  0  0  0  0 
  5  7  1  0  0  0  0 
  5  8  1  0  0  0  0 
  9  6  2  0  0  0  0 
  7 10  2  0  0  0  0 
  8 11  1  0  0  0  0 
 10  9  1  0  0  0  0 
 11 12  2  0  0  0  0 
 11 13  1  0  0  0  0 
M  END
> <Name>
ACETYLSALICYLIC ACID

> <Source>
DSSTox2DMolFile

> <Tox>
-4.599

> <CAS>
50-78-2

$$$$

  CDK

  8  7  0  0  0  0  0  0  0  0999 V2000
    6.9115   -1.9974    0.0000 Cl  0  0  0  0  0  0  0  0  0  0  0  0
    5.7573   -1.3339    0.0000 C   0  0  0  0  0  0  0  0  0  0  0  0
    4.6100   -1.9974    0.0000 C   0  0  0  0  0  0  0  0  0  0  0  0
    3.4558   -1.3339    0.0000 N   0  0  0  0  0  0  0  0  0  0  0  0
    3.4558   -0.0000    0.0000 C   0  0  0  0  0  0  0  0  0  0  0  0
    2.3015   -1.9974    0.0000 C   0  0  0  0  0  0  0  0  0  0  0  0
    1.1542   -1.3339    0.0000 C   0  0  0  0  0  0  0  0  0  0  0  0
    0.0000   -1.9974    0.0000 Cl  0  0  0  0  0  0  0  0  0  0  0  0
  1  2  1  0  0  0  0 
  2  3  1  0  0  0  0 
  3  4  1  0  0  0  0 
  4  5  1  0  0  0  0 
  4  6  1  0  0  0  0 
  6  7  1  0  0  0  0 
  7  8  1  0  0  0  0 
M  END
> <Name>
Mechlorethamine

> <Source>
DSSTox2DMolFile

> <Tox>
-0.770

> <CAS>
51-75-2

$$$$

  CDK

  6  5  0  0  0  0  0  0  0  0999 V2000
    4.6084   -1.9954    0.0000 N   0  0  0  0  0  0  0  0  0  0  0  0
    3.4563   -1.3318    0.0000 C   0  0  0  0  0  0  0  0  0  0  0  0
    3.4563   -0.0000    0.0000 O   0  0  0  0  0  0  0  0  0  0  0  0
    2.3042   -1.9954    0.0000 O   0  0  0  0  0  0  0  0  0  0  0  0
    1.1521   -1.3318    0.0000 C   0  0  0  0  0  0  0  0  0  0  0  0
    0.0000   -1.9954    0.0000 C   0  0  0  0  0  0  0  0  0  0  0  0
  1  2  1  0  0  0  0 
  2  3  2  0  0  0  0 
  2  4  1  0  0  0  0 
  4  5  1  0  0  0  0 
  5  6  1  0  0  0  0 
M  END
> <Name>
O-ETHYL CARBAMATE (URETHANE)

> <Source>
DSSTox2DMolFile

> <Tox>
-0.582

> <CAS>
51-79-6

$$$$

  CDK

 22 26  0  0  0  0  0  0  0  0999 V2000
    4.6586   -3.4567    0.0000 C   0  0  0  0  0  0  0  0  0  0  0  0
    5.9881   -3.4567    0.0000 C   0  0  0  0  0  0  0  0  0  0  0  0
    3.9885   -2.2974    0.0000 C   0  0  0  0  0  0  0  0  0  0  0  0
    6.6475   -4.6054    0.0000 C   0  0  0  0  0  0  0  0  0  0  0  0
    6.6475   -2.2974    0.0000 C   0  0  0  0  0  0  0  0  0  0  0  0
    4.6586   -1.1487    0.0000 C   0  0  0  0  0  0  0  0  0  0  0  0
    2.6590   -2.2974    0.0000 C   0  0  0  0  0  0  0  0  0  0  0  0
    7.9770   -4.6054    0.0000 C   0  0  0  0  0  0  0  0  0  0  0  0
    7.9770   -2.2974    0.0000 C   0  0  0  0  0  0  0  0  0  0  0  0
    5.9881   -1.1487    0.0000 C   0  0  0  0  0  0  0  0  0  0  0  0
    3.9885   -0.0000    0.0000 C   0  0  0  0  0  0  0  0  0  0  0  0
    1.9889   -1.1487    0.0000 C   0  0  0  0  0  0  0  0  0  0  0  0
    1.9889   -3.4567    0.0000 C   0  0  0  0  0  0  0  0  0  0  0  0
    8.6471   -3.4567    0.0000 C   0  0  0  0  0  0  0  0  0  0  0  0
    8.6471   -1.1487    0.0000 C   0  0  0  0  0  0  0  0  0  0  0  0
    2.6590   -0.0000    0.0000 C   0  0  0  0  0  0  0  0  0  0  0  0
    0.6594   -1.1487    0.0000 C   0  0  0  0  0  0  0  0  0  0  0  0
    0.6594   -3.4567    0.0000 C   0  0  0  0  0  0  0  0  0  0  0  0
    9.9660   -3.4567    0.0000 C   0  0  0  0  0  0  0  0  0  0  0  0
    9.9660   -1.1487    0.0000 C   0  0  0  0  0  0  0  0  0  0  0  0
    0.0000   -2.2974    0.0000 C   0  0  0  0  0  0  0  0  0  0  0  0
   10.6361   -2.2974    0.0000 C   0  0  0  0  0  0  0  0  0  0  0  0
  1  2  2  0  0  0  0 
  1  3  1  0  0  0  0 
  2  4  1  0  0  0  0 
  2  5  1  0  0  0  0 
  6  3  1  0  0  0  0 
  7  3  2  0  0  0  0 
  4  8  2  0  0  0  0 
  9  5  1  0  0  0  0 
  5 10  2  0  0  0  0 
 10  6  1  0  0  0  0 
  6 11  2  0  0  0  0 
 12  7  1  0  0  0  0 
  7 13  1  0  0  0  0 
  8 14  1  0  0  0  0 
 14  9  1  0  0  0  0 
 15  9  2  0  0  0  0 
 11 16  1  0  0  0  0 
 16 12  2  0  0  0  0 
 12 17  1  0  0  0  0 
 13 18  2  0  0  0  0 
 14 19  2  0  0  0  0 
 20 15  1  0  0  0  0 
 21 17  2  0  0  0  0 
 18 21  1  0  0  0  0 
 19 22  1  0  0  0  0 
 22 20  2  0  0  0  0 
M  END
> <Name>
DIBENZ(A,H)ANTHRACENE

> <Source>
DSSTox2DMolFile

> <Tox>
-9.020

> <CAS>
53-70-3

$$$$

  CDK

 12 13  0  0  0  0  0  0  0  0999 V2000
    1.1823   -0.0000    0.0000 C   0  0  0  0  0  0  0  0  0  0  0  0
    1.1162   -1.3323    0.0000 N   0  0  0  0  0  0  0  0  0  0  0  0
    2.1485   -2.1665    0.0000 C   0  0  0  0  0  0  0  0  0  0  0  0
    0.0000   -2.0524    0.0000 C   0  0  0  0  0  0  0  0  0  0  0  0
    3.4328   -1.8244    0.0000 C   0  0  0  0  0  0  0  0  0  0  0  0
    1.6744   -3.4087    0.0000 C   0  0  0  0  0  0  0  0  0  0  0  0
    0.3421   -3.3367    0.0000 C   0  0  0  0  0  0  0  0  0  0  0  0
    3.7748   -0.5401    0.0000 C   0  0  0  0  0  0  0  0  0  0  0  0
    4.3750   -2.7606    0.0000 C   0  0  0  0  0  0  0  0  0  0  0  0
    5.0591   -0.1920    0.0000 C   0  0  0  0  0  0  0  0  0  0  0  0
    5.6592   -2.4185    0.0000 N   0  0  0  0  0  0  0  0  0  0  0  0
    6.0013   -1.1342    0.0000 C   0  0  0  0  0  0  0  0  0  0  0  0
  1  2  1  0  0  0  0 
  2  3  1  0  0  0  0 
  2  4  1  0  0  0  0 
  3  5  1  6  0  0  0 
  3  6  1  0  0  0  0 
  7  4  1  0  0  0  0 
  5  8  2  0  0  0  0 
  5  9  1  0  0  0  0 
  6  7  1  0  0  0  0 
  8 10  1  0  0  0  0 
 11  9  2  0  0  0  0 
 10 12  2  0  0  0  0 
 12 11  1  0  0  0  0 
M  END
> <Name>
NICOTINE

> <Source>
DSSTox2DMolFile

> <Tox>
-1.420

> <CAS>
54-11-5

$$$$

  CDK

 16 16  0  0  0  0  0  0  0  0999 V2000
    7.5738   -3.4552    0.0000 S   0  0  0  0  0  0  0  0  0  0  0  0
    6.9104   -2.3035    0.0000 P   0  0  0  0  0  0  0  0  0  0  0  0
    5.7587   -2.9669    0.0000 O   0  0  0  0  0  0  0  0  0  0  0  0
    6.2470   -1.1517    0.0000 O   0  0  0  0  0  0  0  0  0  0  0  0
    8.0622   -1.6401    0.0000 O   0  0  0  0  0  0  0  0  0  0  0  0
    4.6070   -2.3035    0.0000 C   0  0  0  0  0  0  0  0  0  0  0  0
    6.9104   -0.0000    0.0000 C   0  0  0  0  0  0  0  0  0  0  0  0
    9.2139   -2.3035    0.0000 C   0  0  0  0  0  0  0  0  0  0  0  0
    3.4552   -2.9669    0.0000 C   0  0  0  0  0  0  0  0  0  0  0  0
    4.6070   -0.9767    0.0000 C   0  0  0  0  0  0  0  0  0  0  0  0
    2.3035   -2.3035    0.0000 C   0  0  0  0  0  0  0  0  0  0  0  0
    3.4552   -0.3041    0.0000 C   0  0  0  0  0  0  0  0  0  0  0  0
    2.3035   -0.9767    0.0000 C   0  0  0  0  0  0  0  0  0  0  0  0
    1.1517   -2.9669    0.0000 C   0  0  0  0  0  0  0  0  0  0  0  0
    1.1517   -0.3041    0.0000 S   0  0  0  0  0  0  0  0  0  0  0  0
    0.0000   -0.9767    0.0000 C   0  0  0  0  0  0  0  0  0  0  0  0
  1  2  2  0  0  0  0 
  2  3  1  0  0  0  0 
  2  4  1  0  0  0  0 
  2  5  1  0  0  0  0 
  3  6  1  0  0  0  0 
  4  7  1  0  0  0  0 
  5  8  1  0  0  0  0 
  6  9  2  0  0  0  0 
  6 10  1  0  0  0  0 
  9 11  1  0  0  0  0 
 12 10  2  0  0  0  0 
 11 13  2  0  0  0  0 
 11 14  1  0  0  0  0 
 13 12  1  0  0  0  0 
 13 15  1  0  0  0  0 
 15 16  1  0  0  0  0 
M  END
> <Name>
FENTHION

> <Source>
DSSTox2DMolFile

> <Tox>
-4.979

> <CAS>
55-38-9

$$$$

  CDK

 15 14  0  0  0  0  0  0  0  0999 V2000
    5.7539   -0.0000    0.0000 O   0  0  0  0  0  0  0  0  0  0  0  0
    5.7539   -1.3257    0.0000 N   0  0  0  0  0  0  0  0  0  0  0  0
    4.6031   -1.9885    0.0000 O   0  0  0  0  0  0  0  0  0  0  0  0
    6.9047   -1.9885    0.0000 O   0  0  0  0  0  0  0  0  0  0  0  0
    4.6031   -3.3142    0.0000 C   0  0  0  0  0  0  0  0  0  0  0  0
    5.7539   -3.9863    0.0000 C   0  0  0  0  0  0  0  0  0  0  0  0
    3.4523   -3.9863    0.0000 C   0  0  0  0  0  0  0  0  0  0  0  0
    6.9047   -3.3142    0.0000 O   0  0  0  0  0  0  0  0  0  0  0  0
    2.3016   -3.3142    0.0000 O   0  0  0  0  0  0  0  0  0  0  0  0
    8.0554   -3.9863    0.0000 N   0  0  0  0  0  0  0  0  0  0  0  0
    1.1508   -3.9863    0.0000 N   0  0  0  0  0  0  0  0  0  0  0  0
    8.0554   -5.3120    0.0000 O   0  0  0  0  0  0  0  0  0  0  0  0
    9.2062   -3.3142    0.0000 O   0  0  0  0  0  0  0  0  0  0  0  0
    1.1508   -5.3120    0.0000 O   0  0  0  0  0  0  0  0  0  0  0  0
    0.0000   -3.3142    0.0000 O   0  0  0  0  0  0  0  0  0  0  0  0
  1  2  2  0  0  0  0 
  2  3  1  0  0  0  0 
  2  4  1  0  0  0  0 
  3  5  1  0  0  0  0 
  5  6  1  0  0  0  0 
  5  7  1  0  0  0  0 
  6  8  1  0  0  0  0 
  7  9  1  0  0  0  0 
  8 10  1  0  0  0  0 
  9 11  1  0  0  0  0 
 10 12  2  0  0  0  0 
 10 13  1  0  0  0  0 
 11 14  2  0  0  0  0 
 11 15  1  0  0  0  0 
M  CHG  1   2   1
M  CHG  1   4  -1
M  CHG  1  10   1
M  CHG  1  11   1
M  CHG  1  13  -1
M  CHG  1  15  -1
M  END
> <Name>
1,2,3-PROPANETRIOL TRINITRATE

> <Source>
DSSTox2DMolFile

> <Tox>
-3.398

> <CAS>
55-63-0

$$$$

  CDK

  5  4  0  0  0  0  0  0  0  0999 V2000
    1.3300   -2.6600    0.0000 Cl  0  0  0  0  0  0  0  0  0  0  0  0
    1.3300   -1.3300    0.0000 C   0  0  0  0  0  0  0  0  0  0  0  0
    0.0000   -1.3300    0.0000 Cl  0  0  0  0  0  0  0  0  0  0  0  0
    1.3300   -0.0000    0.0000 Cl  0  0  0  0  0  0  0  0  0  0  0  0
    2.6600   -1.3300    0.0000 Cl  0  0  0  0  0  0  0  0  0  0  0  0
  1  2  1  0  0  0  0 
  2  3  1  0  0  0  0 
  2  4  1  0  0  0  0 
  2  5  1  0  0  0  0 
M  END
> <Name>
CARBON TETRACHLORIDE

> <Source>
DSSTox2DMolFile

> <Tox>
2.061

> <CAS>
56-23-5

$$$$

  CDK

 21 25  0  0  0  0  0  0  0  0999 V2000
    9.9762   -1.1572    0.0000 C   0  0  0  0  0  0  0  0  0  0  0  0
    8.6494   -1.1572    0.0000 C   0  0  0  0  0  0  0  0  0  0  0  0
    7.9809   -2.3045    0.0000 C   0  0  0  0  0  0  0  0  0  0  0  0
    7.9809   -0.0000    0.0000 C   0  0  0  0  0  0  0  0  0  0  0  0
    6.6541   -2.3045    0.0000 C   0  0  0  0  0  0  0  0  0  0  0  0
    8.1805   -3.6214    0.0000 C   0  0  0  0  0  0  0  0  0  0  0  0
    6.6541   -0.0000    0.0000 C   0  0  0  0  0  0  0  0  0  0  0  0
    5.9857   -1.1572    0.0000 C   0  0  0  0  0  0  0  0  0  0  0  0
    5.9857   -3.4617    0.0000 C   0  0  0  0  0  0  0  0  0  0  0  0
    7.0232   -4.2898    0.0000 C   0  0  0  0  0  0  0  0  0  0  0  0
    4.6589   -1.1572    0.0000 C   0  0  0  0  0  0  0  0  0  0  0  0
    4.6589   -3.4617    0.0000 C   0  0  0  0  0  0  0  0  0  0  0  0
    3.9905   -2.3045    0.0000 C   0  0  0  0  0  0  0  0  0  0  0  0
    3.9905   -4.6090    0.0000 C   0  0  0  0  0  0  0  0  0  0  0  0
    2.6636   -2.3045    0.0000 C   0  0  0  0  0  0  0  0  0  0  0  0
    2.6636   -4.6090    0.0000 C   0  0  0  0  0  0  0  0  0  0  0  0
    1.9952   -3.4617    0.0000 C   0  0  0  0  0  0  0  0  0  0  0  0
    1.9952   -1.1572    0.0000 C   0  0  0  0  0  0  0  0  0  0  0  0
    0.6684   -3.4617    0.0000 C   0  0  0  0  0  0  0  0  0  0  0  0
    0.6684   -1.1572    0.0000 C   0  0  0  0  0  0  0  0  0  0  0  0
    0.0000   -2.3045    0.0000 C   0  0  0  0  0  0  0  0  0  0  0  0
  1  2  1  0  0  0  0 
  2  3  2  0  0  0  0 
  2  4  1  0  0  0  0 
  3  5  1  0  0  0  0 
  3  6  1  0  0  0  0 
  7  4  2  0  0  0  0 
  5  8  2  0  0  0  0 
  5  9  1  0  0  0  0 
 10  6  1  0  0  0  0 
  8  7  1  0  0  0  0 
  8 11  1  0  0  0  0 
 12  9  2  0  0  0  0 
  9 10  1  0  0  0  0 
 11 13  2  0  0  0  0 
 13 12  1  0  0  0  0 
 12 14  1  0  0  0  0 
 13 15  1  0  0  0  0 
 14 16  2  0  0  0  0 
 17 15  1  0  0  0  0 
 18 15  2  0  0  0  0 
 16 17  1  0  0  0  0 
 17 19  2  0  0  0  0 
 20 18  1  0  0  0  0 
 19 21  1  0  0  0  0 
 21 20  2  0  0  0  0 
M  END
> <Name>
3-METHYLCHOLANTHRENE

> <Source>
DSSTox2DMolFile

> <Tox>
-7.367

> <CAS>
56-49-5

$$$$

  CDK

  6  5  0  0  0  0  0  0  0  0999 V2000
    2.3058   -0.6641    0.0000 C   0  0  0  0  0  0  0  0  0  0  0  0
    2.3058   -2.0014    0.0000 O   0  0  0  0  0  0  0  0  0  0  0  0
    3.4494   -0.0000    0.0000 C   0  0  0  0  0  0  0  0  0  0  0  0
    1.1437   -0.0000    0.0000 C   0  0  0  0  0  0  0  0  0  0  0  0
    4.6115   -0.6641    0.0000 O   0  0  0  0  0  0  0  0  0  0  0  0
    0.0000   -0.6456    0.0000 O   0  0  0  0  0  0  0  0  0  0  0  0
  1  2  1  0  0  0  0 
  1  3  1  0  0  0  0 
  1  4  1  0  0  0  0 
  5  3  1  0  0  0  0 
  6  4  1  0  0  0  0 
M  END
> <Name>
GLYCEROL

> <Source>
DSSTox2DMolFile

> <Tox>
-3.775

> <CAS>
56-81-5

$$$$

  CDK

 10  9  0  0  0  0  0  0  0  0999 V2000
    5.7807   -1.3276    0.0000 C   0  0  0  0  0  0  0  0  0  0  0  0
    5.7807   -0.0000    0.0000 O   0  0  0  0  0  0  0  0  0  0  0  0
    4.5914   -1.9983    0.0000 C   0  0  0  0  0  0  0  0  0  0  0  0
    6.9147   -1.9983    0.0000 O   0  0  0  0  0  0  0  0  0  0  0  0
    3.4574   -1.3276    0.0000 C   0  0  0  0  0  0  0  0  0  0  0  0
    4.5914   -3.3260    0.0000 N   0  0  0  0  0  0  0  0  0  0  0  0
    2.3026   -1.9983    0.0000 C   0  0  0  0  0  0  0  0  0  0  0  0
    1.1340   -1.3415    0.0000 C   0  0  0  0  0  0  0  0  0  0  0  0
    0.0000   -1.9983    0.0000 O   0  0  0  0  0  0  0  0  0  0  0  0
    1.1548   -0.0138    0.0000 O   0  0  0  0  0  0  0  0  0  0  0  0
  1  2  2  0  0  0  0 
  1  3  1  0  0  0  0 
  1  4  1  0  0  0  0 
  3  5  1  0  0  0  0 
  3  6  1  1  0  0  0 
  5  7  1  0  0  0  0 
  8  7  1  0  0  0  0 
  8  9  2  0  0  0  0 
  8 10  1  0  0  0  0 
M  END
> <Name>
GLUTAMIC ACID

> <Source>
DSSTox2DMolFile

> <Tox>
-7.770

> <CAS>
56-86-0

$$$$

  CDK

  5  4  0  0  0  0  0  0  0  0999 V2000
    3.4567   -1.9945    0.0000 C   0  0  0  0  0  0  0  0  0  0  0  0
    2.3056   -1.3308    0.0000 C   0  0  0  0  0  0  0  0  0  0  0  0
    1.1511   -1.9945    0.0000 C   0  0  0  0  0  0  0  0  0  0  0  0
    2.3056   -0.0000    0.0000 O   0  0  0  0  0  0  0  0  0  0  0  0
    0.0000   -1.3308    0.0000 O   0  0  0  0  0  0  0  0  0  0  0  0
  1  2  1  0  0  0  0 
  2  3  1  0  0  0  0 
  2  4  1  0  0  0  0 
  3  5  1  0  0  0  0 
M  END
> <Name>
1,2-PROPANEDIOL

> <Source>
DSSTox2DMolFile

> <Tox>
-0.889

> <CAS>
57-55-6

$$$$

  CDK

 18 20  0  0  0  0  0  0  0  0999 V2000
    1.2603   -3.3292    0.0000 C   0  0  0  0  0  0  0  0  0  0  0  0
    3.2499   -2.1798    0.0000 C   0  0  0  0  0  0  0  0  0  0  0  0
    2.5445   -2.9883    0.0000 C   0  0  0  0  0  0  0  0  0  0  0  0
    0.0000   -2.4335    0.0000 Cl  0  0  0  0  0  0  0  0  0  0  0  0
    4.3755   -2.4810    0.0000 C   0  0  0  0  0  0  0  0  0  0  0  0
    3.8603   -3.3292    0.0000 C   0  0  0  0  0  0  0  0  0  0  0  0
    1.9896   -4.0584    0.0000 Cl  0  0  0  0  0  0  0  0  0  0  0  0
    5.7706   -2.1085    0.0000 C   0  0  0  0  0  0  0  0  0  0  0  0
    5.2474   -3.1707    0.0000 C   0  0  0  0  0  0  0  0  0  0  0  0
    6.8724   -2.7981    0.0000 C   0  0  0  0  0  0  0  0  0  0  0  0
    5.4456   -1.0939    0.0000 C   0  0  0  0  0  0  0  0  0  0  0  0
    6.5474   -1.2603    0.0000 Cl  0  0  0  0  0  0  0  0  0  0  0  0
    6.2620   -3.6145    0.0000 C   0  0  0  0  0  0  0  0  0  0  0  0
    4.4310   -4.2249    0.0000 Cl  0  0  0  0  0  0  0  0  0  0  0  0
    7.9266   -2.2749    0.0000 Cl  0  0  0  0  0  0  0  0  0  0  0  0
    6.0163   -0.1585    0.0000 Cl  0  0  0  0  0  0  0  0  0  0  0  0
    4.5499   -0.0000    0.0000 Cl  0  0  0  0  0  0  0  0  0  0  0  0
    6.8724   -4.5499    0.0000 Cl  0  0  0  0  0  0  0  0  0  0  0  0
  1  2  1  0  0  0  0 
  1  3  1  0  0  0  0 
  1  4  1  0  0  0  0 
  2  5  1  0  0  0  0 
  3  6  1  0  0  0  0 
  3  7  1  0  0  0  0 
  5  6  1  0  0  0  0 
  5  8  1  0  0  0  0 
  6  9  1  0  0  0  0 
  8 10  1  0  0  0  0 
  8 11  1  0  0  0  0 
  8 12  1  0  0  0  0 
 13  9  1  0  0  0  0 
  9 11  1  0  0  0  0 
  9 14  1  0  0  0  0 
 10 13  2  0  0  0  0 
 10 15  1  0  0  0  0 
 11 16  1  0  0  0  0 
 11 17  1  0  0  0  0 
 13 18  1  0  0  0  0 
M  END
> <Name>
CHLORDANE

> <Source>
DSSTox2DMolFile

> <Tox>
-5.011

> <CAS>
57-74-9

$$$$

  CDK

 10 10  0  0  0  0  0  0  0  0999 V2000
    1.3296   -2.3081    0.0000 C   0  0  0  0  0  0  0  0  0  0  0  0
    1.9943   -1.1541    0.0000 C   0  0  0  0  0  0  0  0  0  0  0  0
    1.9943   -3.4568    0.0000 O   0  0  0  0  0  0  0  0  0  0  0  0
    0.0000   -2.3081    0.0000 O   0  0  0  0  0  0  0  0  0  0  0  0
    3.3239   -1.1541    0.0000 C   0  0  0  0  0  0  0  0  0  0  0  0
    1.3296   -0.0000    0.0000 O   0  0  0  0  0  0  0  0  0  0  0  0
    3.3239   -3.4568    0.0000 C   0  0  0  0  0  0  0  0  0  0  0  0
    3.9887   -2.3081    0.0000 C   0  0  0  0  0  0  0  0  0  0  0  0
    3.9887   -0.0000    0.0000 O   0  0  0  0  0  0  0  0  0  0  0  0
    5.3182   -2.3081    0.0000 O   0  0  0  0  0  0  0  0  0  0  0  0
  1  2  1  0  0  0  0 
  1  3  1  0  0  0  0 
  1  4  1  0  0  0  0 
  2  5  1  0  0  0  0 
  2  6  1  6  0  0  0 
  7  3  1  0  0  0  0 
  5  8  1  0  0  0  0 
  5  9  1  1  0  0  0 
  8  7  1  0  0  0  0 
  8 10  1  6  0  0  0 
M  END
> <Name>
D-Xylose

> <Source>
DSSTox2DMolFile

> <Tox>
-9.706

> <CAS>
58-86-6

$$$$

  CDK

 11 11  0  0  0  0  0  0  0  0999 V2000
    1.3317   -4.6078    0.0000 O   0  0  0  0  0  0  0  0  0  0  0  0
    1.9952   -3.4558    0.0000 C   0  0  0  0  0  0  0  0  0  0  0  0
    1.3317   -2.3039    0.0000 C   0  0  0  0  0  0  0  0  0  0  0  0
    3.3268   -3.4558    0.0000 C   0  0  0  0  0  0  0  0  0  0  0  0
    0.0000   -2.3039    0.0000 Cl  0  0  0  0  0  0  0  0  0  0  0  0
    1.9952   -1.1519    0.0000 C   0  0  0  0  0  0  0  0  0  0  0  0
    3.9904   -2.3039    0.0000 C   0  0  0  0  0  0  0  0  0  0  0  0
    3.9904   -4.6078    0.0000 Cl  0  0  0  0  0  0  0  0  0  0  0  0
    1.3317   -0.0000    0.0000 Cl  0  0  0  0  0  0  0  0  0  0  0  0
    3.3268   -1.1519    0.0000 C   0  0  0  0  0  0  0  0  0  0  0  0
    3.9904   -0.0000    0.0000 Cl  0  0  0  0  0  0  0  0  0  0  0  0
  1  2  1  0  0  0  0 
  2  3  2  0  0  0  0 
  2  4  1  0  0  0  0 
  3  5  1  0  0  0  0 
  3  6  1  0  0  0  0 
  7  4  2  0  0  0  0 
  4  8  1  0  0  0  0 
  6  9  1  0  0  0  0 
  6 10  2  0  0  0  0 
 10  7  1  0  0  0  0 
 10 11  1  0  0  0  0 
M  END
> <Name>
2,3,4,6-TETRACHLOROPHENOL

> <Source>
DSSTox2DMolFile

> <Tox>
-3.177

> <CAS>
58-90-2

$$$$

  CDK

  6  5  0  0  0  0  0  0  0  0999 V2000
    0.0764   -1.7134    0.2234 S   0  0  0  0  0  0  0  0  0  0  0  0
    0.0526    0.0614   -0.2482 C   0  0  0  0  0  0  0  0  0  0  0  0
   -1.1838    0.7690    0.3217 C   0  0  0  0  0  0  0  0  0  0  0  0
    1.3323    0.7287    0.2670 C   0  0  0  0  0  0  0  0  0  0  0  0
   -2.7538    0.0602   -0.2710 S   0  0  0  0  0  0  0  0  0  0  0  0
    2.4762    0.0941   -0.2929 O   0  0  0  0  0  0  0  0  0  0  0  0
  1  2  1  0  0  0  0 
  2  3  1  0  0  0  0 
  2  4  1  0  0  0  0 
  5  3  1  0  0  0  0 
  6  4  1  0  0  0  0 
M  END
> <Name>
1-Propanol, 2,3-dimercapto-

> <Source>
Chemidplus3DMolFile

> <Tox>
-2.301

> <CAS>
59-52-9

$$$$

  CDK

 17 18  0  0  0  0  0  0  0  0999 V2000
    0.0000   -3.4549    0.0000 C   0  0  0  0  0  0  0  0  0  0  0  0
    0.6591   -2.3068    0.0000 N   0  0  0  0  0  0  0  0  0  0  0  0
    1.9879   -2.3068    0.0000 C   0  0  0  0  0  0  0  0  0  0  0  0
    0.0000   -1.1481    0.0000 C   0  0  0  0  0  0  0  0  0  0  0  0
    2.6576   -1.1481    0.0000 C   0  0  0  0  0  0  0  0  0  0  0  0
    2.6576   -3.4549    0.0000 C   0  0  0  0  0  0  0  0  0  0  0  0
    3.9864   -1.1481    0.0000 C   0  0  0  0  0  0  0  0  0  0  0  0
    3.9864   -3.4549    0.0000 C   0  0  0  0  0  0  0  0  0  0  0  0
    4.6561   -2.3068    0.0000 C   0  0  0  0  0  0  0  0  0  0  0  0
    5.9849   -2.3068    0.0000 N   0  0  0  0  0  0  0  0  0  0  0  0
    6.6440   -1.1481    0.0000 N   0  0  0  0  0  0  0  0  0  0  0  0
    7.9728   -1.1481    0.0000 C   0  0  0  0  0  0  0  0  0  0  0  0
    8.6425   -0.0000    0.0000 C   0  0  0  0  0  0  0  0  0  0  0  0
    8.6425   -2.3068    0.0000 C   0  0  0  0  0  0  0  0  0  0  0  0
    9.9606   -0.0000    0.0000 C   0  0  0  0  0  0  0  0  0  0  0  0
    9.9606   -2.3068    0.0000 C   0  0  0  0  0  0  0  0  0  0  0  0
   10.6303   -1.1481    0.0000 C   0  0  0  0  0  0  0  0  0  0  0  0
  1  2  1  0  0  0  0 
  2  3  1  0  0  0  0 
  2  4  1  0  0  0  0 
  3  5  2  0  0  0  0 
  3  6  1  0  0  0  0 
  5  7  1  0  0  0  0 
  8  6  2  0  0  0  0 
  7  9  2  0  0  0  0 
  9  8  1  0  0  0  0 
  9 10  1  0  0  0  0 
 10 11  2  0  0  0  0 
 11 12  1  0  0  0  0 
 12 13  2  0  0  0  0 
 12 14  1  0  0  0  0 
 13 15  1  0  0  0  0 
 16 14  2  0  0  0  0 
 15 17  2  0  0  0  0 
 17 16  1  0  0  0  0 
M  END
> <Name>
4-(N,N-DIMETHYLAMINO)AZOBENZENE

> <Source>
DSSTox2DMolFile

> <Tox>
-7.155

> <CAS>
60-11-7

$$$$

  CDK

  9  9  0  0  0  0  0  0  0  0999 V2000
    2.0190   -3.4571    0.0000 C   0  0  0  0  0  0  0  0  0  0  0  0
    2.7151   -4.6076    0.0000 C   0  0  0  0  0  0  0  0  0  0  0  0
    0.6960   -3.4571    0.0000 C   0  0  0  0  0  0  0  0  0  0  0  0
    2.6518   -2.2952    0.0000 C   0  0  0  0  0  0  0  0  0  0  0  0
    2.0190   -5.7523    0.0000 C   0  0  0  0  0  0  0  0  0  0  0  0
    0.0000   -4.6076    0.0000 C   0  0  0  0  0  0  0  0  0  0  0  0
    1.9903   -1.1447    0.0000 C   0  0  0  0  0  0  0  0  0  0  0  0
    0.6960   -5.7523    0.0000 C   0  0  0  0  0  0  0  0  0  0  0  0
    2.6173   -0.0000    0.0000 O   0  0  0  0  0  0  0  0  0  0  0  0
  1  2  2  0  0  0  0 
  1  3  1  0  0  0  0 
  1  4  1  0  0  0  0 
  2  5  1  0  0  0  0 
  6  3  2  0  0  0  0 
  7  4  1  0  0  0  0 
  5  8  2  0  0  0  0 
  8  6  1  0  0  0  0 
  7  9  1  0  0  0  0 
M  END
> <Name>
2-PHENYLETHANOL

> <Source>
DSSTox2DMolFile

> <Tox>
-1.061

> <CAS>
60-12-8

$$$$

  CDK

  5  4  0  0  0  0  0  0  0  0999 V2000
    2.3050   -0.6638    0.0000 O   0  0  0  0  0  0  0  0  0  0  0  0
    1.1525   -0.0000    0.0000 C   0  0  0  0  0  0  0  0  0  0  0  0
    3.4575   -0.0000    0.0000 C   0  0  0  0  0  0  0  0  0  0  0  0
    0.0000   -0.6638    0.0000 C   0  0  0  0  0  0  0  0  0  0  0  0
    4.6099   -0.6638    0.0000 C   0  0  0  0  0  0  0  0  0  0  0  0
  1  2  1  0  0  0  0 
  1  3  1  0  0  0  0 
  2  4  1  0  0  0  0 
  3  5  1  0  0  0  0 
M  END
> <Name>
DIETHYL ETHER

> <Source>
DSSTox2DMolFile

> <Tox>
2.731

> <CAS>
60-29-7

$$$$

  CDK

 20 19  0  0  0  0  0  0  0  0999 V2000
    1.1535   -1.3310    0.0000 C   0  0  0  0  0  0  0  0  0  0  0  0
    0.0000   -1.9901    0.0000 O   0  0  0  0  0  0  0  0  0  0  0  0
    1.1535   -0.0000    0.0000 O   0  0  0  0  0  0  0  0  0  0  0  0
    2.3070   -1.9901    0.0000 C   0  0  0  0  0  0  0  0  0  0  0  0
    2.3070   -3.3211    0.0000 C   0  0  0  0  0  0  0  0  0  0  0  0
    3.4605   -3.9929    0.0000 C   0  0  0  0  0  0  0  0  0  0  0  0
    3.4605   -5.3239    0.0000 C   0  0  0  0  0  0  0  0  0  0  0  0
    4.6141   -5.9831    0.0000 C   0  0  0  0  0  0  0  0  0  0  0  0
    4.6141   -7.3140    0.0000 C   0  0  0  0  0  0  0  0  0  0  0  0
    5.7676   -7.9859    0.0000 C   0  0  0  0  0  0  0  0  0  0  0  0
    5.7676   -9.3168    0.0000 C   0  0  0  0  0  0  0  0  0  0  0  0
    6.9084   -9.9760    0.0000 C   0  0  0  0  0  0  0  0  0  0  0  0
    8.0619   -9.3168    0.0000 C   0  0  0  0  0  0  0  0  0  0  0  0
    9.2154   -9.9760    0.0000 C   0  0  0  0  0  0  0  0  0  0  0  0
   10.3689   -9.3168    0.0000 C   0  0  0  0  0  0  0  0  0  0  0  0
   10.3689   -7.9859    0.0000 C   0  0  0  0  0  0  0  0  0  0  0  0
   11.5225   -7.3140    0.0000 C   0  0  0  0  0  0  0  0  0  0  0  0
   11.5225   -5.9831    0.0000 C   0  0  0  0  0  0  0  0  0  0  0  0
   12.6760   -5.3239    0.0000 C   0  0  0  0  0  0  0  0  0  0  0  0
   12.6760   -3.9929    0.0000 C   0  0  0  0  0  0  0  0  0  0  0  0
  1  2  2  0  0  0  0 
  1  3  1  0  0  0  0 
  1  4  1  0  0  0  0 
  4  5  1  0  0  0  0 
  5  6  1  0  0  0  0 
  6  7  1  0  0  0  0 
  8  7  1  0  0  0  0 
  9  8  1  0  0  0  0 
 10  9  1  0  0  0  0 
 11 10  1  0  0  0  0 
 12 11  2  0  0  0  0 
 12 13  1  0  0  0  0 
 14 13  1  0  0  0  0 
 14 15  2  0  0  0  0 
 15 16  1  0  0  0  0 
 16 17  1  0  0  0  0 
 17 18  1  0  0  0  0 
 19 18  1  0  0  0  0 
 19 20  1  0  0  0  0 
M  END
> <Name>
LINOLEIC ACID

> <Source>
DSSTox2DMolFile

> <Tox>
-6.061

> <CAS>
60-33-3

$$$$

  CDK

  3  2  0  0  0  0  0  0  0  0999 V2000
    2.3030   -0.6656    0.0000 C   0  0  0  0  0  0  0  0  0  0  0  0
    1.1515   -0.0000    0.0000 N   0  0  0  0  0  0  0  0  0  0  0  0
    0.0000   -0.6656    0.0000 N   0  0  0  0  0  0  0  0  0  0  0  0
  1  2  1  0  0  0  0 
  2  3  1  0  0  0  0 
M  END
> <Name>
METHYL HYDRAZINE

> <Source>
DSSTox2DMolFile

> <Tox>
1.699

> <CAS>
60-34-4

$$$$

  CDK

  4  3  0  0  0  0  0  0  0  0999 V2000
    1.9950   -0.0000    0.0000 C   0  0  0  0  0  0  0  0  0  0  0  0
    1.3292   -1.1518    0.0000 C   0  0  0  0  0  0  0  0  0  0  0  0
    1.9950   -2.3037    0.0000 O   0  0  0  0  0  0  0  0  0  0  0  0
    0.0000   -1.1518    0.0000 N   0  0  0  0  0  0  0  0  0  0  0  0
  1  2  1  0  0  0  0 
  2  3  2  0  0  0  0 
  2  4  1  0  0  0  0 
M  END
> <Name>
ACETAMIDE

> <Source>
DSSTox2DMolFile

> <Tox>
-1.398

> <CAS>
60-35-5

$$$$

  CDK

 12 11  0  0  0  0  0  0  0  0999 V2000
    3.3242   -1.9909    0.0000 S   0  0  0  0  0  0  0  0  0  0  0  0
    1.9909   -1.9909    0.0000 P   0  0  0  0  0  0  0  0  0  0  0  0
    1.9909   -3.3242    0.0000 S   0  0  0  0  0  0  0  0  0  0  0  0
    0.6636   -1.9909    0.0000 O   0  0  0  0  0  0  0  0  0  0  0  0
    1.9909   -0.6636    0.0000 O   0  0  0  0  0  0  0  0  0  0  0  0
    3.1448   -3.9878    0.0000 C   0  0  0  0  0  0  0  0  0  0  0  0
    0.0000   -3.1448    0.0000 C   0  0  0  0  0  0  0  0  0  0  0  0
    3.1448   -0.0000    0.0000 C   0  0  0  0  0  0  0  0  0  0  0  0
    3.1448   -5.3151    0.0000 C   0  0  0  0  0  0  0  0  0  0  0  0
    1.9909   -5.9788    0.0000 O   0  0  0  0  0  0  0  0  0  0  0  0
    4.2928   -5.9788    0.0000 N   0  0  0  0  0  0  0  0  0  0  0  0
    5.4467   -5.3151    0.0000 C   0  0  0  0  0  0  0  0  0  0  0  0
  1  2  2  0  0  0  0 
  2  3  1  0  0  0  0 
  2  4  1  0  0  0  0 
  2  5  1  0  0  0  0 
  3  6  1  0  0  0  0 
  4  7  1  0  0  0  0 
  5  8  1  0  0  0  0 
  6  9  1  0  0  0  0 
  9 10  2  0  0  0  0 
  9 11  1  0  0  0  0 
 11 12  1  0  0  0  0 
M  END
> <Name>
DIMETHOATE

> <Source>
DSSTox2DMolFile

> <Tox>
-4.726

> <CAS>
60-51-5

$$$$

  CDK

  6  6  0  0  0  0  0  0  0  0999 V2000
    1.3304   -1.0738    0.0000 C   0  0  0  0  0  0  0  0  0  0  0  0
    2.1104   -0.0000    0.0000 N   0  0  0  0  0  0  0  0  0  0  0  0
    2.1104   -2.1509    0.0000 N   0  0  0  0  0  0  0  0  0  0  0  0
    0.0000   -1.0738    0.0000 N   0  0  0  0  0  0  0  0  0  0  0  0
    3.3767   -0.4086    0.0000 C   0  0  0  0  0  0  0  0  0  0  0  0
    3.3767   -1.7390    0.0000 N   0  0  0  0  0  0  0  0  0  0  0  0
  1  2  1  0  0  0  0 
  1  3  2  0  0  0  0 
  1  4  1  0  0  0  0 
  2  5  2  0  0  0  0 
  6  3  1  0  0  0  0 
  5  6  1  0  0  0  0 
M  END
> <Name>
AMITROLE

> <Source>
DSSTox2DMolFile

> <Tox>
-6.357

> <CAS>
61-82-5

$$$$

  CDK

 13 13  0  0  0  0  0  0  0  0999 V2000
    9.2089   -0.0000    0.0000 C   0  0  0  0  0  0  0  0  0  0  0  0
    8.0578   -0.6630    0.0000 C   0  0  0  0  0  0  0  0  0  0  0  0
    8.0578   -1.9983    0.0000 O   0  0  0  0  0  0  0  0  0  0  0  0
    6.9067   -0.0000    0.0000 N   0  0  0  0  0  0  0  0  0  0  0  0
    5.7556   -0.6630    0.0000 C   0  0  0  0  0  0  0  0  0  0  0  0
    5.7556   -1.9983    0.0000 C   0  0  0  0  0  0  0  0  0  0  0  0
    4.6044   -0.0000    0.0000 C   0  0  0  0  0  0  0  0  0  0  0  0
    4.6044   -2.6614    0.0000 C   0  0  0  0  0  0  0  0  0  0  0  0
    3.4533   -0.6630    0.0000 C   0  0  0  0  0  0  0  0  0  0  0  0
    3.4533   -1.9983    0.0000 C   0  0  0  0  0  0  0  0  0  0  0  0
    2.3022   -2.6614    0.0000 O   0  0  0  0  0  0  0  0  0  0  0  0
    1.1511   -1.9983    0.0000 C   0  0  0  0  0  0  0  0  0  0  0  0
    0.0000   -2.6614    0.0000 C   0  0  0  0  0  0  0  0  0  0  0  0
  1  2  1  0  0  0  0 
  2  3  2  0  0  0  0 
  2  4  1  0  0  0  0 
  4  5  1  0  0  0  0 
  5  6  2  0  0  0  0 
  5  7  1  0  0  0  0 
  6  8  1  0  0  0  0 
  9  7  2  0  0  0  0 
  8 10  2  0  0  0  0 
 10  9  1  0  0  0  0 
 10 11  1  0  0  0  0 
 11 12  1  0  0  0  0 
 12 13  1  0  0  0  0 
M  END
> <Name>
P-PHENACETIN

> <Source>
DSSTox2DMolFile

> <Tox>
-6.160

> <CAS>
62-44-2

$$$$

  CDK

  7  6  0  0  0  0  0  0  0  0999 V2000
    1.8182   -2.3061    0.0000 O   0  0  0  0  0  0  0  0  0  0  0  0
    3.1484   -2.3061    0.0000 C   0  0  0  0  0  0  0  0  0  0  0  0
    1.1511   -1.1549    0.0000 S   0  0  0  0  0  0  0  0  0  0  0  0
    3.8117   -3.4572    0.0000 C   0  0  0  0  0  0  0  0  0  0  0  0
    0.4879   -0.0000    0.0000 C   0  0  0  0  0  0  0  0  0  0  0  0
    2.3023   -0.4879    0.0000 O   0  0  0  0  0  0  0  0  0  0  0  0
    0.0000   -1.8182    0.0000 O   0  0  0  0  0  0  0  0  0  0  0  0
  1  2  1  0  0  0  0 
  1  3  1  0  0  0  0 
  2  4  1  0  0  0  0 
  3  5  1  0  0  0  0 
  3  6  2  0  0  0  0 
  3  7  2  0  0  0  0 
M  END
> <Name>
ETHYL METHANESULFONATE

> <Source>
DSSTox2DMolFile

> <Tox>
-0.686

> <CAS>
62-50-0

$$$$

  CDK

  7  7  0  0  0  0  0  0  0  0999 V2000
    0.0000   -1.1496    0.0000 N   0  0  0  0  0  0  0  0  0  0  0  0
    1.3292   -1.1496    0.0000 C   0  0  0  0  0  0  0  0  0  0  0  0
    1.9958   -0.0000    0.0000 C   0  0  0  0  0  0  0  0  0  0  0  0
    1.9958   -2.3032    0.0000 C   0  0  0  0  0  0  0  0  0  0  0  0
    3.3250   -0.0000    0.0000 C   0  0  0  0  0  0  0  0  0  0  0  0
    3.3250   -2.3032    0.0000 C   0  0  0  0  0  0  0  0  0  0  0  0
    3.9916   -1.1496    0.0000 C   0  0  0  0  0  0  0  0  0  0  0  0
  1  2  1  0  0  0  0 
  2  3  2  0  0  0  0 
  2  4  1  0  0  0  0 
  3  5  1  0  0  0  0 
  6  4  2  0  0  0  0 
  5  7  2  0  0  0  0 
  7  6  1  0  0  0  0 
M  END
> <Name>
ANILINE

> <Source>
DSSTox2DMolFile

> <Tox>
-0.310

> <CAS>
62-53-3

$$$$

  CDK

  4  3  0  0  0  0  0  0  0  0999 V2000
    1.9950   -0.0000    0.0000 N   0  0  0  0  0  0  0  0  0  0  0  0
    1.3292   -1.1518    0.0000 C   0  0  0  0  0  0  0  0  0  0  0  0
    1.9950   -2.3037    0.0000 S   0  0  0  0  0  0  0  0  0  0  0  0
    0.0000   -1.1518    0.0000 N   0  0  0  0  0  0  0  0  0  0  0  0
  1  2  1  0  0  0  0 
  2  3  2  0  0  0  0 
  2  4  1  0  0  0  0 
M  END
> <Name>
THIOUREA

> <Source>
DSSTox2DMolFile

> <Tox>
-2.553

> <CAS>
62-56-6

$$$$

  CDK

 11 10  0  0  0  0  0  0  0  0999 V2000
    3.3245   -1.9911    0.0000 O   0  0  0  0  0  0  0  0  0  0  0  0
    1.9911   -1.9911    0.0000 P   0  0  0  0  0  0  0  0  0  0  0  0
    1.9911   -3.3245    0.0000 O   0  0  0  0  0  0  0  0  0  0  0  0
    0.6637   -1.9911    0.0000 O   0  0  0  0  0  0  0  0  0  0  0  0
    1.9911   -0.6637    0.0000 O   0  0  0  0  0  0  0  0  0  0  0  0
    3.1451   -3.9882    0.0000 C   0  0  0  0  0  0  0  0  0  0  0  0
    0.0000   -3.1451    0.0000 C   0  0  0  0  0  0  0  0  0  0  0  0
    3.1451   -0.0000    0.0000 C   0  0  0  0  0  0  0  0  0  0  0  0
    3.1451   -5.3156    0.0000 C   0  0  0  0  0  0  0  0  0  0  0  0
    4.2931   -5.9793    0.0000 Cl  0  0  0  0  0  0  0  0  0  0  0  0
    1.9911   -5.9793    0.0000 Cl  0  0  0  0  0  0  0  0  0  0  0  0
  1  2  2  0  0  0  0 
  2  3  1  0  0  0  0 
  2  4  1  0  0  0  0 
  2  5  1  0  0  0  0 
  3  6  1  0  0  0  0 
  4  7  1  0  0  0  0 
  5  8  1  0  0  0  0 
  6  9  2  0  0  0  0 
  9 10  1  0  0  0  0 
  9 11  1  0  0  0  0 
M  END
> <Name>
DICHLORVOS

> <Source>
DSSTox2DMolFile

> <Tox>
-1.801

> <CAS>
62-73-7

$$$$

  CDK

 15 16  0  0  0  0  0  0  0  0999 V2000
    1.1543   -0.6704    0.0000 O   0  0  0  0  0  0  0  0  0  0  0  0
    1.1543   -1.9975    0.0000 C   0  0  0  0  0  0  0  0  0  0  0  0
    2.3016   -2.6610    0.0000 O   0  0  0  0  0  0  0  0  0  0  0  0
    0.0000   -2.6610    0.0000 N   0  0  0  0  0  0  0  0  0  0  0  0
    3.4559   -1.9975    0.0000 C   0  0  0  0  0  0  0  0  0  0  0  0
    0.0000   -3.9950    0.0000 C   0  0  0  0  0  0  0  0  0  0  0  0
    4.6102   -2.6610    0.0000 C   0  0  0  0  0  0  0  0  0  0  0  0
    3.4559   -0.6704    0.0000 C   0  0  0  0  0  0  0  0  0  0  0  0
    5.7575   -1.9975    0.0000 C   0  0  0  0  0  0  0  0  0  0  0  0
    4.6102   -3.9950    0.0000 C   0  0  0  0  0  0  0  0  0  0  0  0
    4.6102   -0.0000    0.0000 C   0  0  0  0  0  0  0  0  0  0  0  0
    5.7575   -0.6704    0.0000 C   0  0  0  0  0  0  0  0  0  0  0  0
    6.9118   -2.6610    0.0000 C   0  0  0  0  0  0  0  0  0  0  0  0
    5.7575   -4.6585    0.0000 C   0  0  0  0  0  0  0  0  0  0  0  0
    6.9118   -3.9950    0.0000 C   0  0  0  0  0  0  0  0  0  0  0  0
  1  2  2  0  0  0  0 
  2  3  1  0  0  0  0 
  2  4  1  0  0  0  0 
  3  5  1  0  0  0  0 
  4  6  1  0  0  0  0 
  5  7  2  0  0  0  0 
  5  8  1  0  0  0  0 
  7  9  1  0  0  0  0 
  7 10  1  0  0  0  0 
 11  8  2  0  0  0  0 
  9 12  2  0  0  0  0 
  9 13  1  0  0  0  0 
 14 10  2  0  0  0  0 
 12 11  1  0  0  0  0 
 13 15  2  0  0  0  0 
 15 14  1  0  0  0  0 
M  END
> <Name>
1-NAPHTHYL-N-METHYLCARBAMATE

> <Source>
DSSTox2DMolFile

> <Tox>
-5.866

> <CAS>
63-25-2

$$$$

  CDK

 11 11  0  0  0  0  0  0  0  0999 V2000
    0.0000   -2.3036    0.0000 C   0  0  0  0  0  0  0  0  0  0  0  0
    0.6655   -1.1541    0.0000 C   0  0  0  0  0  0  0  0  0  0  0  0
    0.6655   -3.4577    0.0000 N   0  0  0  0  0  0  0  0  0  0  0  0
    1.9964   -1.1541    0.0000 C   0  0  0  0  0  0  0  0  0  0  0  0
    1.9964   -3.4577    0.0000 C   0  0  0  0  0  0  0  0  0  0  0  0
    0.0000   -4.6072    0.0000 C   0  0  0  0  0  0  0  0  0  0  0  0
    2.6573   -2.3036    0.0000 C   0  0  0  0  0  0  0  0  0  0  0  0
    3.9882   -2.3036    0.0000 C   0  0  0  0  0  0  0  0  0  0  0  0
    4.6537   -3.4577    0.0000 O   0  0  0  0  0  0  0  0  0  0  0  0
    4.6537   -1.1541    0.0000 O   0  0  0  0  0  0  0  0  0  0  0  0
    3.9882   -0.0000    0.0000 C   0  0  0  0  0  0  0  0  0  0  0  0
  1  2  1  0  0  0  0 
  1  3  1  0  0  0  0 
  2  4  1  0  0  0  0 
  5  3  1  0  0  0  0 
  3  6  1  0  0  0  0 
  4  7  2  0  0  0  0 
  7  5  1  0  0  0  0 
  7  8  1  0  0  0  0 
  8  9  2  0  0  0  0 
  8 10  1  0  0  0  0 
 10 11  1  0  0  0  0 
M  END
> <Name>
ARECOLINE

> <Source>
DSSTox2DMolFile

> <Tox>
-1.102

> <CAS>
63-75-2

$$$$

  CDK

  3  2  0  0  0  0  0  0  0  0999 V2000
    2.3030   -0.6656    0.0000 C   0  0  0  0  0  0  0  0  0  0  0  0
    1.1515   -0.0000    0.0000 C   0  0  0  0  0  0  0  0  0  0  0  0
    0.0000   -0.6656    0.0000 O   0  0  0  0  0  0  0  0  0  0  0  0
  1  2  1  0  0  0  0 
  2  3  1  0  0  0  0 
M  END
> <Name>
ETHANOL

> <Source>
DSSTox2DMolFile

> <Tox>
1.773

> <CAS>
64-17-5

$$$$

  CDK

  3  2  0  0  0  0  0  0  0  0999 V2000
    1.1545   -0.6604    0.0000 C   0  0  0  0  0  0  0  0  0  0  0  0
    0.0000   -0.0000    0.0000 O   0  0  0  0  0  0  0  0  0  0  0  0
    2.3090   -0.0000    0.0000 O   0  0  0  0  0  0  0  0  0  0  0  0
  1  2  2  0  0  0  0 
  1  3  1  0  0  0  0 
M  END
> <Name>
FORMIC ACID

> <Source>
DSSTox2DMolFile

> <Tox>
1.629

> <CAS>
64-18-6

$$$$

  CDK

  9  8  0  0  0  0  0  0  0  0999 V2000
    0.0000   -0.0000    0.0000 C   0  0  0  0  0  0  0  0  0  0  0  0
    1.2665   -0.4222    0.0000 C   0  0  0  0  0  0  0  0  0  0  0  0
    1.5248   -1.7328    0.0000 O   0  0  0  0  0  0  0  0  0  0  0  0
    2.7787   -2.1549    0.0000 S   0  0  0  0  0  0  0  0  0  0  0  0
    4.0389   -2.5834    0.0000 O   0  0  0  0  0  0  0  0  0  0  0  0
    2.3566   -3.4088    0.0000 O   0  0  0  0  0  0  0  0  0  0  0  0
    3.2135   -0.8947    0.0000 O   0  0  0  0  0  0  0  0  0  0  0  0
    5.0344   -1.7076    0.0000 C   0  0  0  0  0  0  0  0  0  0  0  0
    6.3009   -2.1234    0.0000 C   0  0  0  0  0  0  0  0  0  0  0  0
  1  2  1  0  0  0  0 
  2  3  1  0  0  0  0 
  3  4  1  0  0  0  0 
  5  4  1  0  0  0  0 
  6  4  2  0  0  0  0 
  7  4  2  0  0  0  0 
  8  5  1  0  0  0  0 
  8  9  1  0  0  0  0 
M  END
> <Name>
DIETHYL SULFATE

> <Source>
DSSTox2DMolFile

> <Tox>
-0.674

> <CAS>
64-67-5

$$$$

  CDK

  9  9  0  0  0  0  0  0  0  0999 V2000
    0.0000   -2.3037    0.0000 O   0  0  0  0  0  0  0  0  0  0  0  0
    0.6655   -1.1542    0.0000 C   0  0  0  0  0  0  0  0  0  0  0  0
    0.0000   -0.0000    0.0000 O   0  0  0  0  0  0  0  0  0  0  0  0
    1.9965   -1.1542    0.0000 C   0  0  0  0  0  0  0  0  0  0  0  0
    2.6574   -0.0000    0.0000 C   0  0  0  0  0  0  0  0  0  0  0  0
    2.6574   -2.3037    0.0000 C   0  0  0  0  0  0  0  0  0  0  0  0
    3.9884   -0.0000    0.0000 C   0  0  0  0  0  0  0  0  0  0  0  0
    3.9884   -2.3037    0.0000 C   0  0  0  0  0  0  0  0  0  0  0  0
    4.6539   -1.1542    0.0000 C   0  0  0  0  0  0  0  0  0  0  0  0
  1  2  1  0  0  0  0 
  2  3  2  0  0  0  0 
  2  4  1  0  0  0  0 
  4  5  2  0  0  0  0 
  4  6  1  0  0  0  0 
  5  7  1  0  0  0  0 
  8  6  2  0  0  0  0 
  7  9  2  0  0  0  0 
  9  8  1  0  0  0  0 
M  END
> <Name>
BENZOIC ACID

> <Source>
DSSTox2DMolFile

> <Tox>
-3.155

> <CAS>
65-85-0

$$$$

  CDK

  8  8  0  0  0  0  0  0  0  0999 V2000
    4.6080   -2.6588    0.0000 O   0  0  0  0  0  0  0  0  0  0  0  0
    3.4560   -1.9953    0.0000 C   0  0  0  0  0  0  0  0  0  0  0  0
    2.3040   -2.6588    0.0000 N   0  0  0  0  0  0  0  0  0  0  0  0
    3.4560   -0.6635    0.0000 C   0  0  0  0  0  0  0  0  0  0  0  0
    1.1520   -1.9953    0.0000 C   0  0  0  0  0  0  0  0  0  0  0  0
    2.3040   -0.0000    0.0000 C   0  0  0  0  0  0  0  0  0  0  0  0
    0.0000   -2.6588    0.0000 O   0  0  0  0  0  0  0  0  0  0  0  0
    1.1520   -0.6635    0.0000 N   0  0  0  0  0  0  0  0  0  0  0  0
  1  2  2  0  0  0  0 
  2  3  1  0  0  0  0 
  2  4  1  0  0  0  0 
  3  5  1  0  0  0  0 
  6  4  2  0  0  0  0 
  5  7  2  0  0  0  0 
  5  8  1  0  0  0  0 
  8  6  1  0  0  0  0 
M  END
> <Name>
URACIL

> <Source>
DSSTox2DMolFile

> <Tox>
-4.331

> <CAS>
66-22-8

$$$$

  CDK

  9  9  0  0  0  0  0  0  0  0999 V2000
    0.0000   -2.3037    0.0000 O   0  0  0  0  0  0  0  0  0  0  0  0
    1.3315   -2.3037    0.0000 C   0  0  0  0  0  0  0  0  0  0  0  0
    1.9950   -1.1518    0.0000 C   0  0  0  0  0  0  0  0  0  0  0  0
    1.9950   -3.4555    0.0000 N   0  0  0  0  0  0  0  0  0  0  0  0
    3.3265   -1.1518    0.0000 C   0  0  0  0  0  0  0  0  0  0  0  0
    3.3265   -3.4555    0.0000 C   0  0  0  0  0  0  0  0  0  0  0  0
    3.9899   -0.0000    0.0000 O   0  0  0  0  0  0  0  0  0  0  0  0
    3.9899   -2.3037    0.0000 N   0  0  0  0  0  0  0  0  0  0  0  0
    3.9899   -4.6073    0.0000 O   0  0  0  0  0  0  0  0  0  0  0  0
  1  2  2  0  0  0  0 
  2  3  1  0  0  0  0 
  2  4  1  0  0  0  0 
  3  5  1  0  0  0  0 
  6  4  1  0  0  0  0 
  5  7  2  0  0  0  0 
  5  8  1  0  0  0  0 
  8  6  1  0  0  0  0 
  6  9  2  0  0  0  0 
M  END
> <Name>
BARBITURIC ACID

> <Source>
DSSTox2DMolFile

> <Tox>
-7.824

> <CAS>
67-52-7

$$$$

  CDK

  2  1  0  0  0  0  0  0  0  0999 V2000
    0.0000   -0.0000    0.0000 C   0  0  0  0  0  0  0  0  0  0  0  0
    1.3300   -0.0000    0.0000 O   0  0  0  0  0  0  0  0  0  0  0  0
  1  2  1  0  0  0  0 
M  END
> <Name>
METHANOL

> <Source>
DSSTox2DMolFile

> <Tox>
2.104

> <CAS>
67-56-1

$$$$

  CDK

  3  2  0  0  0  0  0  0  0  0999 V2000
    0.0176   -0.5663    0.0000 O   0  0  0  0  0  0  0  0  0  0  0  0
   -1.1682    0.2767    0.0000 N   0  0  0  0  0  0  0  0  0  0  0  0
    1.1506    0.2896    0.0000 C   0  0  0  0  0  0  0  0  0  0  0  0
  1  2  1  0  0  0  0 
  1  3  1  0  0  0  0 
M  END
> <Name>
O-METHYLHYDROXYLAMINE

> <Source>
Chemidplus3DMolFile

> <Tox>
2.464

> <CAS>
67-62-9

$$$$

  CDK

  4  3  0  0  0  0  0  0  0  0999 V2000
    1.9950   -0.0000    0.0000 C   0  0  0  0  0  0  0  0  0  0  0  0
    1.3292   -1.1518    0.0000 C   0  0  0  0  0  0  0  0  0  0  0  0
    1.9950   -2.3037    0.0000 C   0  0  0  0  0  0  0  0  0  0  0  0
    0.0000   -1.1518    0.0000 O   0  0  0  0  0  0  0  0  0  0  0  0
  1  2  1  0  0  0  0 
  2  3  1  0  0  0  0 
  2  4  2  0  0  0  0 
M  END
> <Name>
ACETONE

> <Source>
DSSTox2DMolFile

> <Tox>
2.365

> <CAS>
67-64-1

$$$$

  CDK

  4  3  0  0  0  0  0  0  0  0999 V2000
    1.9950   -0.0000    0.0000 Cl  0  0  0  0  0  0  0  0  0  0  0  0
    1.3292   -1.1518    0.0000 C   0  0  0  0  0  0  0  0  0  0  0  0
    1.9950   -2.3037    0.0000 Cl  0  0  0  0  0  0  0  0  0  0  0  0
    0.0000   -1.1518    0.0000 Cl  0  0  0  0  0  0  0  0  0  0  0  0
  1  2  1  0  0  0  0 
  2  3  1  0  0  0  0 
  2  4  1  0  0  0  0 
M  END
> <Name>
CHLOROFORM

> <Source>
DSSTox2DMolFile

> <Tox>
2.294

> <CAS>
67-66-3

$$$$

  CDK

  4  3  0  0  0  0  0  0  0  0999 V2000
    1.9950   -0.0000    0.0000 C   0  0  0  0  0  0  0  0  0  0  0  0
    1.3292   -1.1518    0.0000 S   0  0  0  0  0  0  0  0  0  0  0  0
    1.9950   -2.3037    0.0000 O   0  0  0  0  0  0  0  0  0  0  0  0
    0.0000   -1.1518    0.0000 C   0  0  0  0  0  0  0  0  0  0  0  0
  1  2  1  0  0  0  0 
  2  3  2  0  0  0  0 
  2  4  1  0  0  0  0 
M  END
> <Name>
DIMETHYL SULFOXIDE

> <Source>
DSSTox2DMolFile

> <Tox>
-0.215

> <CAS>
67-68-5

$$$$

  CDK

  5  4  0  0  0  0  0  0  0  0999 V2000
    2.3056   -0.0000    0.0000 O   0  0  0  0  0  0  0  0  0  0  0  0
    2.3056   -1.3308    0.0000 C   0  0  0  0  0  0  0  0  0  0  0  0
    3.4567   -1.9945    0.0000 O   0  0  0  0  0  0  0  0  0  0  0  0
    1.1511   -1.9945    0.0000 C   0  0  0  0  0  0  0  0  0  0  0  0
    0.0000   -1.3308    0.0000 S   0  0  0  0  0  0  0  0  0  0  0  0
  1  2  2  0  0  0  0 
  2  3  1  0  0  0  0 
  2  4  1  0  0  0  0 
  4  5  1  0  0  0  0 
M  END
> <Name>
MERCAPTOACETIC ACID

> <Source>
DSSTox2DMolFile

> <Tox>
-1.061

> <CAS>
68-11-1

$$$$

  CDK

  5  4  0  0  0  0  0  0  0  0999 V2000
    3.4567   -1.9945    0.0000 C   0  0  0  0  0  0  0  0  0  0  0  0
    2.3056   -1.3308    0.0000 N   0  0  0  0  0  0  0  0  0  0  0  0
    1.1511   -1.9945    0.0000 C   0  0  0  0  0  0  0  0  0  0  0  0
    2.3056   -0.0000    0.0000 C   0  0  0  0  0  0  0  0  0  0  0  0
    0.0000   -1.3308    0.0000 O   0  0  0  0  0  0  0  0  0  0  0  0
  1  2  1  0  0  0  0 
  2  3  1  0  0  0  0 
  2  4  1  0  0  0  0 
  3  5  2  0  0  0  0 
M  END
> <Name>
N,N'-DIMETHYLFORMAMIDE

> <Source>
DSSTox2DMolFile

> <Tox>
0.588

> <CAS>
68-12-2

$$$$

  CDK

 10 10  0  0  0  0  0  0  0  0999 V2000
    2.2984   -2.0134    0.0000 C   0  0  0  0  0  0  0  0  0  0  0  0
    3.4568   -1.3468    0.0000 C   0  0  0  0  0  0  0  0  0  0  0  0
    2.2984   -3.3281    0.0000 C   0  0  0  0  0  0  0  0  0  0  0  0
    1.1584   -1.3468    0.0000 C   0  0  0  0  0  0  0  0  0  0  0  0
    3.4568   -0.0000    0.0000 O   0  0  0  0  0  0  0  0  0  0  0  0
    4.5968   -2.0134    0.0000 O   0  0  0  0  0  0  0  0  0  0  0  0
    3.4568   -4.0268    0.0000 O   0  0  0  0  0  0  0  0  0  0  0  0
    1.1584   -3.9946    0.0000 C   0  0  0  0  0  0  0  0  0  0  0  0
    0.0000   -2.0134    0.0000 C   0  0  0  0  0  0  0  0  0  0  0  0
    0.0000   -3.3281    0.0000 C   0  0  0  0  0  0  0  0  0  0  0  0
  1  2  1  0  0  0  0 
  1  3  2  0  0  0  0 
  1  4  1  0  0  0  0 
  2  5  2  0  0  0  0 
  2  6  1  0  0  0  0 
  3  7  1  0  0  0  0 
  3  8  1  0  0  0  0 
  4  9  2  0  0  0  0 
  8 10  2  0  0  0  0 
  9 10  1  0  0  0  0 
M  END
> <Name>
SALICYLIC ACID

> <Source>
DSSTox2DMolFile

> <Tox>
-4.086

> <CAS>
69-72-7

$$$$

  CDK

  4  3  0  0  0  0  0  0  0  0999 V2000
    0.0000   -0.0000    0.0000 O   0  0  0  0  0  0  0  0  0  0  0  0
    1.1513   -0.6638    0.0000 C   0  0  0  0  0  0  0  0  0  0  0  0
    2.3061   -0.0000    0.0000 C   0  0  0  0  0  0  0  0  0  0  0  0
    3.4575   -0.6638    0.0000 C   0  0  0  0  0  0  0  0  0  0  0  0
  1  2  1  0  0  0  0 
  2  3  1  0  0  0  0 
  3  4  1  0  0  0  0 
M  END
> <Name>
1-PROPANOL

> <Source>
DSSTox2DMolFile

> <Tox>
1.322

> <CAS>
71-23-8

$$$$

  CDK

  5  4  0  0  0  0  0  0  0  0999 V2000
    0.0000   -0.6638    0.0000 C   0  0  0  0  0  0  0  0  0  0  0  0
    1.1525   -0.0000    0.0000 C   0  0  0  0  0  0  0  0  0  0  0  0
    2.3050   -0.6638    0.0000 C   0  0  0  0  0  0  0  0  0  0  0  0
    3.4575   -0.0000    0.0000 C   0  0  0  0  0  0  0  0  0  0  0  0
    4.6099   -0.6638    0.0000 O   0  0  0  0  0  0  0  0  0  0  0  0
  1  2  1  0  0  0  0 
  2  3  1  0  0  0  0 
  3  4  1  0  0  0  0 
  4  5  1  0  0  0  0 
M  END
> <Name>
1-BUTANOL

> <Source>
DSSTox2DMolFile

> <Tox>
0.826

> <CAS>
71-36-3

$$$$

  CDK

  6  5  0  0  0  0  0  0  0  0999 V2000
    0.0000   -0.6630    0.0000 C   0  0  0  0  0  0  0  0  0  0  0  0
    1.1530   -0.0000    0.0000 C   0  0  0  0  0  0  0  0  0  0  0  0
    2.3060   -0.6630    0.0000 C   0  0  0  0  0  0  0  0  0  0  0  0
    3.4590   -0.0000    0.0000 C   0  0  0  0  0  0  0  0  0  0  0  0
    4.6119   -0.6630    0.0000 C   0  0  0  0  0  0  0  0  0  0  0  0
    5.7649   -0.0000    0.0000 O   0  0  0  0  0  0  0  0  0  0  0  0
  1  2  1  0  0  0  0 
  2  3  1  0  0  0  0 
  3  4  1  0  0  0  0 
  4  5  1  0  0  0  0 
  5  6  1  0  0  0  0 
M  END
> <Name>
1-PENTANOL

> <Source>
DSSTox2DMolFile

> <Tox>
0.342

> <CAS>
71-41-0

$$$$

  CDK

  5  4  0  0  0  0  0  0  0  0999 V2000
    1.3300   -2.6600    0.0000 C   0  0  0  0  0  0  0  0  0  0  0  0
    1.3300   -1.3300    0.0000 C   0  0  0  0  0  0  0  0  0  0  0  0
    0.0000   -1.3300    0.0000 Cl  0  0  0  0  0  0  0  0  0  0  0  0
    1.3300   -0.0000    0.0000 Cl  0  0  0  0  0  0  0  0  0  0  0  0
    2.6600   -1.3300    0.0000 Cl  0  0  0  0  0  0  0  0  0  0  0  0
  1  2  1  0  0  0  0 
  2  3  1  0  0  0  0 
  2  4  1  0  0  0  0 
  2  5  1  0  0  0  0 
M  END
> <Name>
1,1,1-TRICHLOROETHANE

> <Source>
DSSTox2DMolFile

> <Tox>
2.093

> <CAS>
71-55-6

$$$$

  CDK

 18 19  0  0  0  0  0  0  0  0999 V2000
    3.4540   -0.0000    0.0000 Cl  0  0  0  0  0  0  0  0  0  0  0  0
    4.6054   -0.6632    0.0000 C   0  0  0  0  0  0  0  0  0  0  0  0
    4.6054   -1.9895    0.0000 C   0  0  0  0  0  0  0  0  0  0  0  0
    5.7567   -0.0000    0.0000 Cl  0  0  0  0  0  0  0  0  0  0  0  0
    5.7567   -2.6527    0.0000 C   0  0  0  0  0  0  0  0  0  0  0  0
    3.4540   -2.6527    0.0000 C   0  0  0  0  0  0  0  0  0  0  0  0
    6.9080   -1.9895    0.0000 C   0  0  0  0  0  0  0  0  0  0  0  0
    5.7567   -3.9882    0.0000 C   0  0  0  0  0  0  0  0  0  0  0  0
    3.4540   -3.9882    0.0000 C   0  0  0  0  0  0  0  0  0  0  0  0
    2.3027   -1.9895    0.0000 C   0  0  0  0  0  0  0  0  0  0  0  0
    8.0594   -2.6527    0.0000 C   0  0  0  0  0  0  0  0  0  0  0  0
    6.9080   -4.6514    0.0000 C   0  0  0  0  0  0  0  0  0  0  0  0
    2.3027   -4.6514    0.0000 C   0  0  0  0  0  0  0  0  0  0  0  0
    1.1513   -2.6527    0.0000 C   0  0  0  0  0  0  0  0  0  0  0  0
    8.0594   -3.9882    0.0000 C   0  0  0  0  0  0  0  0  0  0  0  0
    1.1513   -3.9882    0.0000 C   0  0  0  0  0  0  0  0  0  0  0  0
    9.2107   -4.6514    0.0000 Cl  0  0  0  0  0  0  0  0  0  0  0  0
    0.0000   -4.6514    0.0000 Cl  0  0  0  0  0  0  0  0  0  0  0  0
  1  2  1  0  0  0  0 
  2  3  1  0  0  0  0 
  2  4  1  0  0  0  0 
  3  5  1  0  0  0  0 
  3  6  1  0  0  0  0 
  5  7  2  0  0  0  0 
  5  8  1  0  0  0  0 
  6  9  2  0  0  0  0 
  6 10  1  0  0  0  0 
  7 11  1  0  0  0  0 
 12  8  2  0  0  0  0 
  9 13  1  0  0  0  0 
 14 10  2  0  0  0  0 
 11 15  2  0  0  0  0 
 15 12  1  0  0  0  0 
 13 16  2  0  0  0  0 
 16 14  1  0  0  0  0 
 15 17  1  0  0  0  0 
 16 18  1  0  0  0  0 
M  END
> <Name>
P,P'-DDD

> <Source>
DSSTox2DMolFile

> <Tox>
-5.870

> <CAS>
72-54-8

$$$$

  CDK

 18 19  0  0  0  0  0  0  0  0999 V2000
    3.4540   -0.0000    0.0000 Cl  0  0  0  0  0  0  0  0  0  0  0  0
    4.6054   -0.6632    0.0000 C   0  0  0  0  0  0  0  0  0  0  0  0
    4.6054   -1.9895    0.0000 C   0  0  0  0  0  0  0  0  0  0  0  0
    5.7567   -0.0000    0.0000 Cl  0  0  0  0  0  0  0  0  0  0  0  0
    5.7567   -2.6527    0.0000 C   0  0  0  0  0  0  0  0  0  0  0  0
    3.4540   -2.6527    0.0000 C   0  0  0  0  0  0  0  0  0  0  0  0
    6.9080   -1.9895    0.0000 C   0  0  0  0  0  0  0  0  0  0  0  0
    5.7567   -3.9882    0.0000 C   0  0  0  0  0  0  0  0  0  0  0  0
    3.4540   -3.9882    0.0000 C   0  0  0  0  0  0  0  0  0  0  0  0
    2.3027   -1.9895    0.0000 C   0  0  0  0  0  0  0  0  0  0  0  0
    8.0594   -2.6527    0.0000 C   0  0  0  0  0  0  0  0  0  0  0  0
    6.9080   -4.6514    0.0000 C   0  0  0  0  0  0  0  0  0  0  0  0
    2.3027   -4.6514    0.0000 C   0  0  0  0  0  0  0  0  0  0  0  0
    1.1513   -2.6527    0.0000 C   0  0  0  0  0  0  0  0  0  0  0  0
    8.0594   -3.9882    0.0000 C   0  0  0  0  0  0  0  0  0  0  0  0
    1.1513   -3.9882    0.0000 C   0  0  0  0  0  0  0  0  0  0  0  0
    9.2107   -4.6514    0.0000 Cl  0  0  0  0  0  0  0  0  0  0  0  0
    0.0000   -4.6514    0.0000 Cl  0  0  0  0  0  0  0  0  0  0  0  0
  1  2  1  0  0  0  0 
  2  3  2  0  0  0  0 
  2  4  1  0  0  0  0 
  3  5  1  0  0  0  0 
  3  6  1  0  0  0  0 
  5  7  2  0  0  0  0 
  5  8  1  0  0  0  0 
  6  9  2  0  0  0  0 
  6 10  1  0  0  0  0 
  7 11  1  0  0  0  0 
 12  8  2  0  0  0  0 
  9 13  1  0  0  0  0 
 14 10  2  0  0  0  0 
 11 15  2  0  0  0  0 
 15 12  1  0  0  0  0 
 13 16  2  0  0  0  0 
 16 14  1  0  0  0  0 
 15 17  1  0  0  0  0 
 16 18  1  0  0  0  0 
M  END
> <Name>
P,P'-DDE

> <Source>
DSSTox2DMolFile

> <Tox>
-5.222

> <CAS>
72-55-9

$$$$

  CDK

 10 11  0  0  0  0  0  0  0  0999 V2000
    2.3080   -2.0060    0.0000 C   0  0  0  0  0  0  0  0  0  0  0  0
    2.3080   -3.3434    0.0000 C   0  0  0  0  0  0  0  0  0  0  0  0
    3.5720   -1.6048    0.0000 N   0  0  0  0  0  0  0  0  0  0  0  0
    1.1648   -1.3373    0.0000 C   0  0  0  0  0  0  0  0  0  0  0  0
    3.5720   -3.7489    0.0000 N   0  0  0  0  0  0  0  0  0  0  0  0
    1.1648   -4.0163    0.0000 N   0  0  0  0  0  0  0  0  0  0  0  0
    4.3140   -2.6963    0.0000 C   0  0  0  0  0  0  0  0  0  0  0  0
    0.0000   -1.9888    0.0000 N   0  0  0  0  0  0  0  0  0  0  0  0
    1.1648   -0.0000    0.0000 N   0  0  0  0  0  0  0  0  0  0  0  0
    0.0000   -3.3606    0.0000 C   0  0  0  0  0  0  0  0  0  0  0  0
  1  2  2  0  0  0  0 
  1  3  1  0  0  0  0 
  1  4  1  0  0  0  0 
  2  5  1  0  0  0  0 
  2  6  1  0  0  0  0 
  3  7  2  0  0  0  0 
  4  8  2  0  0  0  0 
  4  9  1  0  0  0  0 
  5  7  1  0  0  0  0 
  6 10  2  0  0  0  0 
  8 10  1  0  0  0  0 
M  END
> <Name>
ADENINE

> <Source>
DSSTox2DMolFile

> <Tox>
-10.351

> <CAS>
73-24-5

$$$$

  CDK

 20 22  0  0  0  0  0  0  0  0999 V2000
    8.0649   -2.6614    0.0000 N   0  0  0  0  0  0  0  0  0  0  0  0
    6.9128   -1.9932    0.0000 C   0  0  0  0  0  0  0  0  0  0  0  0
    9.2170   -1.9932    0.0000 C   0  0  0  0  0  0  0  0  0  0  0  0
    5.7606   -2.6614    0.0000 C   0  0  0  0  0  0  0  0  0  0  0  0
    6.9128   -0.6682    0.0000 C   0  0  0  0  0  0  0  0  0  0  0  0
    9.2170   -0.6682    0.0000 C   0  0  0  0  0  0  0  0  0  0  0  0
   10.3692   -2.6614    0.0000 C   0  0  0  0  0  0  0  0  0  0  0  0
    4.6085   -1.9932    0.0000 C   0  0  0  0  0  0  0  0  0  0  0  0
    5.7606   -0.0000    0.0000 C   0  0  0  0  0  0  0  0  0  0  0  0
   10.3692   -0.0000    0.0000 C   0  0  0  0  0  0  0  0  0  0  0  0
   11.5213   -1.9932    0.0000 C   0  0  0  0  0  0  0  0  0  0  0  0
    4.6085   -0.6682    0.0000 C   0  0  0  0  0  0  0  0  0  0  0  0
   11.5213   -0.6682    0.0000 C   0  0  0  0  0  0  0  0  0  0  0  0
    3.4564   -0.0000    0.0000 N   0  0  0  0  0  0  0  0  0  0  0  0
    2.3043   -0.6682    0.0000 C   0  0  0  0  0  0  0  0  0  0  0  0
    2.3043   -1.9932    0.0000 C   0  0  0  0  0  0  0  0  0  0  0  0
    1.1521   -0.0000    0.0000 C   0  0  0  0  0  0  0  0  0  0  0  0
    1.1521   -2.6614    0.0000 C   0  0  0  0  0  0  0  0  0  0  0  0
    0.0000   -0.6682    0.0000 C   0  0  0  0  0  0  0  0  0  0  0  0
    0.0000   -1.9932    0.0000 C   0  0  0  0  0  0  0  0  0  0  0  0
  1  2  1  0  0  0  0 
  1  3  1  0  0  0  0 
  2  4  2  0  0  0  0 
  2  5  1  0  0  0  0 
  3  6  2  0  0  0  0 
  3  7  1  0  0  0  0 
  4  8  1  0  0  0  0 
  9  5  2  0  0  0  0 
  6 10  1  0  0  0  0 
 11  7  2  0  0  0  0 
  8 12  2  0  0  0  0 
 12  9  1  0  0  0  0 
 10 13  2  0  0  0  0 
 13 11  1  0  0  0  0 
 12 14  1  0  0  0  0 
 14 15  1  0  0  0  0 
 15 16  2  0  0  0  0 
 15 17  1  0  0  0  0 
 16 18  1  0  0  0  0 
 19 17  2  0  0  0  0 
 18 20  2  0  0  0  0 
 20 19  1  0  0  0  0 
M  END
> <Name>
N,N'-DIPHENYL-P-BENZENEDIAMINE

> <Source>
DSSTox2DMolFile

> <Tox>
-8.197

> <CAS>
74-31-7

$$$$

  CDK

  2  1  0  0  0  0  0  0  0  0999 V2000
    0.0000   -0.0000    0.0000 C   0  0  0  0  0  0  0  0  0  0  0  0
    1.3300   -0.0000    0.0000 Br  0  0  0  0  0  0  0  0  0  0  0  0
  1  2  1  0  0  0  0 
M  END
> <Name>
METHYL BROMIDE

> <Source>
DSSTox2DMolFile

> <Tox>
3.210

> <CAS>
74-83-9

$$$$

  CDK

  2  1  0  0  0  0  0  0  0  0999 V2000
    0.0000   -0.0000    0.0000 C   0  0  0  0  0  0  0  0  0  0  0  0
    1.3300   -0.0000    0.0000 C   0  0  0  0  0  0  0  0  0  0  0  0
  1  2  1  0  0  0  0 
M  END
> <Name>
ETHANE

> <Source>
DSSTox2DMolFile

> <Tox>
4.498

> <CAS>
74-84-0

$$$$

  CDK

  2  1  0  0  0  0  0  0  0  0999 V2000
    0.0000   -0.0000    0.0000 C   0  0  0  0  0  0  0  0  0  0  0  0
    1.3300   -0.0000    0.0000 C   0  0  0  0  0  0  0  0  0  0  0  0
  1  2  3  0  0  0  0 
M  END
> <Name>
ACETYLENE

> <Source>
DSSTox2DMolFile

> <Tox>
4.562

> <CAS>
74-86-2

$$$$

  CDK

  2  1  0  0  0  0  0  0  0  0999 V2000
    0.0000   -0.0000    0.0000 Cl  0  0  0  0  0  0  0  0  0  0  0  0
    1.3300   -0.0000    0.0000 C   0  0  0  0  0  0  0  0  0  0  0  0
  1  2  1  0  0  0  0 
M  END
> <Name>
METHYL CHLORIDE

> <Source>
DSSTox2DMolFile

> <Tox>
3.633

> <CAS>
74-87-3

$$$$

  CDK

  2  1  0  0  0  0  0  0  0  0999 V2000
    0.0000   -0.0000    0.0000 C   0  0  0  0  0  0  0  0  0  0  0  0
    1.3300   -0.0000    0.0000 I   0  0  0  0  0  0  0  0  0  0  0  0
  1  2  1  0  0  0  0 
M  END
> <Name>
METHYL IODIDE

> <Source>
DSSTox2DMolFile

> <Tox>
2.607

> <CAS>
74-88-4

$$$$

  CDK

  2  1  0  0  0  0  0  0  0  0999 V2000
    0.0000   -0.0000    0.0000 N   0  0  0  0  0  0  0  0  0  0  0  0
    1.3300   -0.0000    0.0000 C   0  0  0  0  0  0  0  0  0  0  0  0
  1  2  1  0  0  0  0 
M  END
> <Name>
METHYLAMINE

> <Source>
DSSTox2DMolFile

> <Tox>
3.423

> <CAS>
74-89-5

$$$$

  CDK

  2  1  0  0  0  0  0  0  0  0999 V2000
    1.3300   -0.0000    0.0000 C   0  0  0  0  0  0  0  0  0  0  0  0
    0.0000   -0.0000    0.0000 S   0  0  0  0  0  0  0  0  0  0  0  0
  1  2  1  0  0  0  0 
M  END
> <Name>
METHANETHIOL

> <Source>
DSSTox2DMolFile

> <Tox>
3.179

> <CAS>
74-93-1

$$$$

  CDK

  3  2  0  0  0  0  0  0  0  0999 V2000
    0.6582   -1.1553    0.0000 C   0  0  0  0  0  0  0  0  0  0  0  0
    1.9885   -1.1553    0.0000 C   0  0  0  0  0  0  0  0  0  0  0  0
    0.0000   -0.0000    0.0000 C   0  0  0  0  0  0  0  0  0  0  0  0
  1  2  1  0  0  0  0 
  1  3  1  0  0  0  0 
M  END
> <Name>
PROPANE

> <Source>
DSSTox2DMolFile

> <Tox>
3.854

> <CAS>
74-98-6

$$$$

  CDK

  3  2  0  0  0  0  0  0  0  0999 V2000
    0.0000   -0.0000    0.0000 C   0  0  0  0  0  0  0  0  0  0  0  0
    1.1574   -0.6673    0.0000 C   0  0  0  0  0  0  0  0  0  0  0  0
    2.3010   -0.0000    0.0000 C   0  0  0  0  0  0  0  0  0  0  0  0
  1  2  3  0  0  0  0 
  2  3  1  0  0  0  0 
M  END
> <Name>
PROPYNE

> <Source>
DSSTox2DMolFile

> <Tox>
3.634

> <CAS>
74-99-7

$$$$

  CDK

  3  2  0  0  0  0  0  0  0  0999 V2000
    0.0000    0.0000    0.0000 C   0  0  0  0  0  0  0  0  0  0  0  0
    0.8619    0.5070    0.0000 C   0  0  0  0  0  0  0  0  0  0  0  0
    1.7239    0.0000    0.0000 I   0  0  0  0  0  0  0  0  0  0  0  0
  1  2  1  0  0  0  0 
  2  3  1  0  0  0  0 
M  END
> <Name>
IODOETHANE

> <Source>
NIST2DMolFile

> <Tox>
2.134

> <CAS>
75-03-6

$$$$

  CDK

  3  2  0  0  0  0  0  0  0  0999 V2000
    2.6600   -0.0000    0.0000 C   0  0  0  0  0  0  0  0  0  0  0  0
    1.3300   -0.0000    0.0000 C   0  0  0  0  0  0  0  0  0  0  0  0
    0.0000   -0.0000    0.0000 N   0  0  0  0  0  0  0  0  0  0  0  0
  1  2  1  0  0  0  0 
  2  3  3  0  0  0  0 
M  END
> <Name>
ACETONITRILE

> <Source>
DSSTox2DMolFile

> <Tox>
1.948

> <CAS>
75-05-8

$$$$

  CDK

  3  2  0  0  0  0  0  0  0  0999 V2000
    2.3030   -0.6656    0.0000 C   0  0  0  0  0  0  0  0  0  0  0  0
    1.1515   -0.0000    0.0000 C   0  0  0  0  0  0  0  0  0  0  0  0
    0.0000   -0.6656    0.0000 O   0  0  0  0  0  0  0  0  0  0  0  0
  1  2  1  0  0  0  0 
  2  3  2  0  0  0  0 
M  END
> <Name>
ACETALDEHYDE

> <Source>
DSSTox2DMolFile

> <Tox>
2.955

> <CAS>
75-07-0

$$$$

  CDK

  3  2  0  0  0  0  0  0  0  0999 V2000
    0.0000   -1.3234    0.0000 C   0  0  0  0  0  0  0  0  0  0  0  0
    1.1652   -1.9782    0.0000 C   0  0  0  0  0  0  0  0  0  0  0  0
    0.0000   -0.0000    0.0000 S   0  0  0  0  0  0  0  0  0  0  0  0
  1  2  1  0  0  0  0 
  1  3  1  0  0  0  0 
M  END
> <Name>
ETHYL MERCAPTAN

> <Source>
DSSTox2DMolFile

> <Tox>
2.723

> <CAS>
75-08-1

$$$$

  CDK

  3  2  0  0  0  0  0  0  0  0999 V2000
    2.3030   -0.6656    0.0000 Cl  0  0  0  0  0  0  0  0  0  0  0  0
    1.1515   -0.0000    0.0000 C   0  0  0  0  0  0  0  0  0  0  0  0
    0.0000   -0.6656    0.0000 Cl  0  0  0  0  0  0  0  0  0  0  0  0
  1  2  1  0  0  0  0 
  2  3  1  0  0  0  0 
M  END
> <Name>
DICHLOROMETHANE

> <Source>
DSSTox2DMolFile

> <Tox>
2.638

> <CAS>
75-09-2

$$$$

  CDK

  3  2  0  0  0  0  0  0  0  0999 V2000
   -1.2437    0.6048   -2.3271 I   0  0  0  0  0  0  0  0  0  0  0  0
   -0.4431    0.9217   -0.3896 C   0  0  0  0  0  0  0  0  0  0  0  0
   -2.0484    1.5570    0.8416 I   0  0  0  0  0  0  0  0  0  0  0  0
  1  2  1  0  0  0  0 
  3  2  1  0  0  0  0 
M  END
> <Name>
METHYLENE IODIDE

> <Source>
Chemidplus3DMolFile

> <Tox>
0.079

> <CAS>
75-11-6

$$$$

  CDK

  3  2  0  0  0  0  0  0  0  0999 V2000
    1.1515   -0.0000    0.0000 C   0  0  0  0  0  0  0  0  0  0  0  0
    2.3030   -0.6656    0.0000 N   0  0  0  0  0  0  0  0  0  0  0  0
    0.0000   -0.6656    0.0000 O   0  0  0  0  0  0  0  0  0  0  0  0
  1  2  1  0  0  0  0 
  1  3  2  0  0  0  0 
M  END
> <Name>
FORMAMIDE

> <Source>
DSSTox2DMolFile

> <Tox>
-1.215

> <CAS>
75-12-7

$$$$

  CDK

  3  3  0  0  0  0  0  0  0  0999 V2000
    1.0017    2.0060    1.0328 C   0  0  0  0  0  0  0  0  0  0  0  0
    1.9860    2.0878    2.1600 C   0  0  0  0  0  0  0  0  0  0  0  0
    1.3799    0.7685    1.7887 C   0  0  0  0  0  0  0  0  0  0  0  0
  1  2  1  0  0  0  0 
  3  1  1  0  0  0  0 
  2  3  1  0  0  0  0 
M  END
> <Name>
CYCLOPROPANE

> <Source>
NIST3DMolFile

> <Tox>
3.733

> <CAS>
75-19-4

$$$$

  CDK

  4  3  0  0  0  0  0  0  0  0999 V2000
    1.3292   -1.1518    0.0000 C   0  0  0  0  0  0  0  0  0  0  0  0
    1.9950   -0.0000    0.0000 Br  0  0  0  0  0  0  0  0  0  0  0  0
    1.9950   -2.3037    0.0000 Br  0  0  0  0  0  0  0  0  0  0  0  0
    0.0000   -1.1518    0.0000 Br  0  0  0  0  0  0  0  0  0  0  0  0
  1  2  1  0  0  0  0 
  1  3  1  0  0  0  0 
  1  4  1  0  0  0  0 
M  END
> <Name>
BROMOFORM

> <Source>
DSSTox2DMolFile

> <Tox>
0.732

> <CAS>
75-25-2

$$$$

  CDK

  4  3  0  0  0  0  0  0  0  0999 V2000
    0.0000   -0.0000    0.0000 C   0  0  0  0  0  0  0  0  0  0  0  0
    1.1581   -0.6608    0.0000 C   0  0  0  0  0  0  0  0  0  0  0  0
    2.3023   -0.0000    0.0000 C   0  0  0  0  0  0  0  0  0  0  0  0
    1.1581   -1.9961    0.0000 Br  0  0  0  0  0  0  0  0  0  0  0  0
  1  2  1  0  0  0  0 
  2  3  1  0  0  0  0 
  2  4  1  0  0  0  0 
M  END
> <Name>
2-BROMOPROPANE

> <Source>
DSSTox2DMolFile

> <Tox>
2.334

> <CAS>
75-26-3

$$$$

  CDK

  4  3  0  0  0  0  0  0  0  0999 V2000
    0.0000   -0.0000    0.0000 C   0  0  0  0  0  0  0  0  0  0  0  0
    1.1581   -0.6608    0.0000 C   0  0  0  0  0  0  0  0  0  0  0  0
    2.3023   -0.0000    0.0000 C   0  0  0  0  0  0  0  0  0  0  0  0
    1.1581   -1.9961    0.0000 C   0  0  0  0  0  0  0  0  0  0  0  0
  1  2  1  0  0  0  0 
  2  3  1  0  0  0  0 
  2  4  1  0  0  0  0 
M  END
> <Name>
2-METHYLPROPANE

> <Source>
DSSTox2DMolFile

> <Tox>
3.417

> <CAS>
75-28-5

$$$$

  CDK

  4  3  0  0  0  0  0  0  0  0999 V2000
    1.9950   -0.0000    0.0000 C   0  0  0  0  0  0  0  0  0  0  0  0
    1.3292   -1.1518    0.0000 C   0  0  0  0  0  0  0  0  0  0  0  0
    1.9950   -2.3037    0.0000 C   0  0  0  0  0  0  0  0  0  0  0  0
    0.0000   -1.1518    0.0000 S   0  0  0  0  0  0  0  0  0  0  0  0
  1  2  1  0  0  0  0 
  2  3  1  0  0  0  0 
  2  4  1  0  0  0  0 
M  END
> <Name>
2-PROPANETHIOL

> <Source>
DSSTox2DMolFile

> <Tox>
2.442

> <CAS>
75-33-2

$$$$

  CDK

  4  3  0  0  0  0  0  0  0  0999 V2000
    1.9950   -0.0000    0.0000 C   0  0  0  0  0  0  0  0  0  0  0  0
    1.3292   -1.1518    0.0000 C   0  0  0  0  0  0  0  0  0  0  0  0
    1.9950   -2.3037    0.0000 Cl  0  0  0  0  0  0  0  0  0  0  0  0
    0.0000   -1.1518    0.0000 Cl  0  0  0  0  0  0  0  0  0  0  0  0
  1  2  1  0  0  0  0 
  2  3  1  0  0  0  0 
  2  4  1  0  0  0  0 
M  END
> <Name>
1,1-DICHLOROETHANE

> <Source>
DSSTox2DMolFile

> <Tox>
2.356

> <CAS>
75-34-3

$$$$

  CDK

  4  3  0  0  0  0  0  0  0  0999 V2000
    1.9950   -0.0000    0.0000 C   0  0  0  0  0  0  0  0  0  0  0  0
    1.3292   -1.1518    0.0000 C   0  0  0  0  0  0  0  0  0  0  0  0
    1.9950   -2.3037    0.0000 Cl  0  0  0  0  0  0  0  0  0  0  0  0
    0.0000   -1.1518    0.0000 Cl  0  0  0  0  0  0  0  0  0  0  0  0
  1  2  2  0  0  0  0 
  2  3  1  0  0  0  0 
  2  4  1  0  0  0  0 
M  END
> <Name>
1,1-DICHLOROETHENE

> <Source>
DSSTox2DMolFile

> <Tox>
2.778

> <CAS>
75-35-4

$$$$

  CDK

  4  3  0  0  0  0  0  0  0  0999 V2000
    2.3050   -1.9938    0.0000 Cl  0  0  0  0  0  0  0  0  0  0  0  0
    1.1571   -1.3323    0.0000 C   0  0  0  0  0  0  0  0  0  0  0  0
    1.1571   -0.0000    0.0000 O   0  0  0  0  0  0  0  0  0  0  0  0
    0.0000   -1.9938    0.0000 C   0  0  0  0  0  0  0  0  0  0  0  0
  1  2  1  0  0  0  0 
  3  2  2  0  0  0  0 
  2  4  1  0  0  0  0 
M  END
> <Name>
ACETYLCHLORIDE

> <Source>
DSSTox2DMolFile

> <Tox>
2.458

> <CAS>
75-36-5

$$$$

  CDK

  4  3  0  0  0  0  0  0  0  0999 V2000
    0.6581   -1.1505    0.0000 C   0  0  0  0  0  0  0  0  0  0  0  0
    1.9973   -1.1505    0.0000 C   0  0  0  0  0  0  0  0  0  0  0  0
    0.0000   -0.0000    0.0000 F   0  0  0  0  0  0  0  0  0  0  0  0
    0.0000   -2.3010    0.0000 F   0  0  0  0  0  0  0  0  0  0  0  0
  1  2  1  0  0  0  0 
  1  3  1  0  0  0  0 
  1  4  1  0  0  0  0 
M  END
> <Name>
1,1-DIFLUOROETHANE

> <Source>
DSSTox2DMolFile

> <Tox>
3.658

> <CAS>
75-37-6

$$$$

  CDK

  4  3  0  0  0  0  0  0  0  0999 V2000
    1.7158    1.5140    0.0000 Cl  0  0  0  0  0  0  0  0  0  0  0  0
    0.8579    1.0093    0.0000 C   0  0  0  0  0  0  0  0  0  0  0  0
    0.8579    0.0000    0.0000 Cl  0  0  0  0  0  0  0  0  0  0  0  0
    0.0000    1.5140    0.0000 F   0  0  0  0  0  0  0  0  0  0  0  0
  1  2  1  0  0  0  0 
  2  3  1  0  0  0  0 
  2  4  1  0  0  0  0 
M  END
> <Name>
DICHLOROFLUOROMETHANE

> <Source>
NIST2DMolFile

> <Tox>
3.134

> <CAS>
75-43-4

$$$$

  CDK

  4  3  0  0  0  0  0  0  0  0999 V2000
    1.1640   -1.3161    0.0000 C   0  0  0  0  0  0  0  0  0  0  0  0
    1.1640   -0.0000    0.0000 O   0  0  0  0  0  0  0  0  0  0  0  0
    0.0000   -1.9868    0.0000 Cl  0  0  0  0  0  0  0  0  0  0  0  0
    2.3049   -2.0006    0.0000 Cl  0  0  0  0  0  0  0  0  0  0  0  0
  1  2  2  0  0  0  0 
  1  3  1  0  0  0  0 
  1  4  1  0  0  0  0 
M  END
> <Name>
PHOSGENE

> <Source>
DSSTox2DMolFile

> <Tox>
3.152

> <CAS>
75-44-5

$$$$

  CDK

  4  3  0  0  0  0  0  0  0  0999 V2000
    1.3199   -1.1599    0.0000 C   0  0  0  0  0  0  0  0  0  0  0  0
    0.0000   -1.1599    0.0000 F   0  0  0  0  0  0  0  0  0  0  0  0
    1.9810   -2.3197    0.0000 F   0  0  0  0  0  0  0  0  0  0  0  0
    1.9810   -0.0000    0.0000 F   0  0  0  0  0  0  0  0  0  0  0  0
  1  2  1  0  0  0  0 
  1  3  1  0  0  0  0 
  1  4  1  0  0  0  0 
M  END
> <Name>
TRIFLUOROMETHANE

> <Source>
DSSTox2DMolFile

> <Tox>
4.548

> <CAS>
75-46-7

$$$$

  CDK

  4  3  0  0  0  0  0  0  0  0999 V2000
    1.3292   -1.1518    0.0000 N   0  0  0  0  0  0  0  0  0  0  0  0
    1.9950   -0.0000    0.0000 C   0  0  0  0  0  0  0  0  0  0  0  0
    1.9950   -2.3037    0.0000 C   0  0  0  0  0  0  0  0  0  0  0  0
    0.0000   -1.1518    0.0000 C   0  0  0  0  0  0  0  0  0  0  0  0
  1  2  1  0  0  0  0 
  1  3  1  0  0  0  0 
  1  4  1  0  0  0  0 
M  END
> <Name>
TRIMETHYLAMINE

> <Source>
DSSTox2DMolFile

> <Tox>
3.207

> <CAS>
75-50-3

$$$$

  CDK

  4  3  0  0  0  0  0  0  0  0999 V2000
    0.0000   -1.1505    0.0000 C   0  0  0  0  0  0  0  0  0  0  0  0
    1.3323   -1.1505    0.0000 N   0  0  0  0  0  0  0  0  0  0  0  0
    1.9973   -0.0000    0.0000 O   0  0  0  0  0  0  0  0  0  0  0  0
    1.9973   -2.3010    0.0000 O   0  0  0  0  0  0  0  0  0  0  0  0
  1  2  1  0  0  0  0 
  2  3  2  0  0  0  0 
  2  4  1  0  0  0  0 
M  CHG  1   2   1
M  CHG  1   4  -1
M  END
> <Name>
NITROMETHANE

> <Source>
DSSTox2DMolFile

> <Tox>
1.554

> <CAS>
75-52-5

$$$$

  CDK

  4  3  0  0  0  0  0  0  0  0999 V2000
    1.3392   -1.1485    0.0000 Si  0  0  0  0  0  0  0  0  0  0  0  0
    0.0000   -1.1485    0.0000 C   0  0  0  0  0  0  0  0  0  0  0  0
    2.0007   -0.0000    0.0000 Cl  0  0  0  0  0  0  0  0  0  0  0  0
    2.0007   -2.2970    0.0000 Cl  0  0  0  0  0  0  0  0  0  0  0  0
  1  2  1  0  0  0  0 
  1  3  1  0  0  0  0 
  1  4  1  0  0  0  0 
M  END
> <Name>
DICHLOROMETHYLSILANE

> <Source>
DSSTox2DMolFile

> <Tox>
2.632

> <CAS>
75-54-7

$$$$

  CDK

  4  4  0  0  0  0  0  0  0  0999 V2000
    0.0000   -0.6644    0.0000 C   0  0  0  0  0  0  0  0  0  0  0  0
    1.3263   -0.6644    0.0000 C   0  0  0  0  0  0  0  0  0  0  0  0
    2.4791   -0.0000    0.0000 C   0  0  0  0  0  0  0  0  0  0  0  0
    2.4791   -1.3313    0.0000 N   0  0  0  0  0  0  0  0  0  0  0  0
  1  2  1  0  0  0  0 
  2  3  1  0  0  0  0 
  2  4  1  0  0  0  0 
  3  4  1  0  0  0  0 
M  END
> <Name>
2-METHYLAZIRIDINE

> <Source>
DSSTox2DMolFile

> <Tox>
2.146

> <CAS>
75-55-8

$$$$

  CDK

  4  4  0  0  0  0  0  0  0  0999 V2000
    0.0000   -0.6651    0.0000 C   0  0  0  0  0  0  0  0  0  0  0  0
    1.3302   -0.6651    0.0000 C   0  0  0  0  0  0  0  0  0  0  0  0
    2.4817   -0.0000    0.0000 C   0  0  0  0  0  0  0  0  0  0  0  0
    2.4817   -1.3302    0.0000 O   0  0  0  0  0  0  0  0  0  0  0  0
  1  2  1  0  0  0  0 
  2  3  1  0  0  0  0 
  2  4  1  0  0  0  0 
  3  4  1  0  0  0  0 
M  END
> <Name>
PROPYLENE OXIDE

> <Source>
DSSTox2DMolFile

> <Tox>
2.731

> <CAS>
75-56-9

$$$$

  CDK

  5  4  0  0  0  0  0  0  0  0999 V2000
    1.3300   -1.3300    0.0000 C   0  0  0  0  0  0  0  0  0  0  0  0
    0.0000   -1.3300    0.0000 Br  0  0  0  0  0  0  0  0  0  0  0  0
    1.3300   -2.6600    0.0000 F   0  0  0  0  0  0  0  0  0  0  0  0
    1.3300   -0.0000    0.0000 F   0  0  0  0  0  0  0  0  0  0  0  0
    2.6600   -1.3300    0.0000 F   0  0  0  0  0  0  0  0  0  0  0  0
  1  2  1  0  0  0  0 
  1  3  1  0  0  0  0 
  1  4  1  0  0  0  0 
  1  5  1  0  0  0  0 
M  END
> <Name>
BROMOTRIFLUOROMETHANE

> <Source>
DSSTox2DMolFile

> <Tox>
4.086

> <CAS>
75-63-8

$$$$

  CDK

  5  4  0  0  0  0  0  0  0  0999 V2000
    1.3300   -1.3300    0.0000 C   0  0  0  0  0  0  0  0  0  0  0  0
    1.3300   -2.6600    0.0000 C   0  0  0  0  0  0  0  0  0  0  0  0
    0.0000   -1.3300    0.0000 C   0  0  0  0  0  0  0  0  0  0  0  0
    1.3300   -0.0000    0.0000 C   0  0  0  0  0  0  0  0  0  0  0  0
    2.6600   -1.3300    0.0000 N   0  0  0  0  0  0  0  0  0  0  0  0
  1  2  1  0  0  0  0 
  1  3  1  0  0  0  0 
  1  4  1  0  0  0  0 
  1  5  1  0  0  0  0 
M  END
> <Name>
T-BUTYLAMINE

> <Source>
DSSTox2DMolFile

> <Tox>
2.571

> <CAS>
75-64-9

$$$$

  CDK

  5  4  0  0  0  0  0  0  0  0999 V2000
    0.4805   -0.0000    0.0000 C   0  0  0  0  0  0  0  0  0  0  0  0
    1.1550   -1.1550    0.0000 C   0  0  0  0  0  0  0  0  0  0  0  0
    2.2938   -0.4967    0.0000 C   0  0  0  0  0  0  0  0  0  0  0  0
    0.0000   -1.8295    0.0000 S   0  0  0  0  0  0  0  0  0  0  0  0
    1.8134   -2.3100    0.0000 C   0  0  0  0  0  0  0  0  0  0  0  0
  1  2  1  0  0  0  0 
  2  3  1  0  0  0  0 
  2  4  1  0  0  0  0 
  2  5  1  0  0  0  0 
M  END
> <Name>
2-METHYL-2-PROPANETHIOL

> <Source>
DSSTox2DMolFile

> <Tox>
2.258

> <CAS>
75-66-1

$$$$

  CDK

  5  4  0  0  0  0  0  0  0  0999 V2000
    1.3300   -1.3300    0.0000 C   0  0  0  0  0  0  0  0  0  0  0  0
    2.6600   -1.3300    0.0000 C   0  0  0  0  0  0  0  0  0  0  0  0
    1.3300   -0.0000    0.0000 Cl  0  0  0  0  0  0  0  0  0  0  0  0
    0.0000   -1.3300    0.0000 F   0  0  0  0  0  0  0  0  0  0  0  0
    1.3300   -2.6600    0.0000 F   0  0  0  0  0  0  0  0  0  0  0  0
  1  2  1  0  0  0  0 
  1  3  1  0  0  0  0 
  1  4  1  0  0  0  0 
  1  5  1  0  0  0  0 
M  END
> <Name>
1-CHLORO-1,1-DIFLUOROETHANE

> <Source>
DSSTox2DMolFile

> <Tox>
3.405

> <CAS>
75-68-3

$$$$

  CDK

  5  4  0  0  0  0  0  0  0  0999 V2000
    2.5091    0.0000    0.0000 Cl  0  0  0  0  0  0  0  0  0  0  0  0
    1.2466    0.6163    1.1630 C   0  0  0  0  0  0  0  0  0  0  0  0
    1.3566    0.0489    2.3742 F   0  0  0  0  0  0  0  0  0  0  0  0
    1.3361    1.9425    1.3479 F   0  0  0  0  0  0  0  0  0  0  0  0
    0.0000    0.3694    0.7317 F   0  0  0  0  0  0  0  0  0  0  0  0
  1  2  1  0  0  0  0 
  2  3  1  0  0  0  0 
  2  4  1  0  0  0  0 
  2  5  1  0  0  0  0 
M  END
> <Name>
CHLOROTRIFLUOROMETHANE

> <Source>
NIST3DMolFile

> <Tox>
4.330

> <CAS>
75-72-9

$$$$

  CDK

  5  4  0  0  0  0  0  0  0  0999 V2000
    1.3071    0.0000    0.2433 F   0  0  0  0  0  0  0  0  0  0  0  0
    1.0932    1.2666    0.6134 C   0  0  0  0  0  0  0  0  0  0  0  0
    0.9178    1.3206    1.9375 F   0  0  0  0  0  0  0  0  0  0  0  0
    0.0000    1.7310    0.0000 F   0  0  0  0  0  0  0  0  0  0  0  0
    2.1471    2.0147    0.2722 F   0  0  0  0  0  0  0  0  0  0  0  0
  1  2  1  0  0  0  0 
  2  3  1  0  0  0  0 
  2  4  1  0  0  0  0 
  2  5  1  0  0  0  0 
M  END
> <Name>
TETRAFLUOROMETHANE

> <Source>
NIST3DMolFile

> <Tox>
5.243

> <CAS>
75-73-0

$$$$

  CDK

  5  4  0  0  0  0  0  0  0  0999 V2000
    1.3300   -1.3300    0.0000 Si  0  0  0  0  0  0  0  0  0  0  0  0
    0.0000   -1.3300    0.0000 C   0  0  0  0  0  0  0  0  0  0  0  0
    1.3300   -2.6600    0.0000 C   0  0  0  0  0  0  0  0  0  0  0  0
    1.3300   -0.0000    0.0000 C   0  0  0  0  0  0  0  0  0  0  0  0
    2.6600   -1.3300    0.0000 C   0  0  0  0  0  0  0  0  0  0  0  0
  1  2  1  0  0  0  0 
  1  3  1  0  0  0  0 
  1  4  1  0  0  0  0 
  1  5  1  0  0  0  0 
M  END
> <Name>
TETRAMETHYLSILANE

> <Source>
DSSTox2DMolFile

> <Tox>
2.856

> <CAS>
75-76-3

$$$$

  CDK

  5  4  0  0  0  0  0  0  0  0999 V2000
    1.3300   -2.6600    0.0000 C   0  0  0  0  0  0  0  0  0  0  0  0
    1.3300   -1.3300    0.0000 Si  0  0  0  0  0  0  0  0  0  0  0  0
    0.0000   -1.3300    0.0000 C   0  0  0  0  0  0  0  0  0  0  0  0
    1.3300   -0.0000    0.0000 C   0  0  0  0  0  0  0  0  0  0  0  0
    2.6600   -1.3300    0.0000 Cl  0  0  0  0  0  0  0  0  0  0  0  0
  1  2  1  0  0  0  0 
  2  3  1  0  0  0  0 
  2  4  1  0  0  0  0 
  2  5  1  0  0  0  0 
M  END
> <Name>
CHLOROTRIMETHYLSILANE

> <Source>
DSSTox2DMolFile

> <Tox>
2.369

> <CAS>
75-77-4

$$$$

  CDK

  5  4  0  0  0  0  0  0  0  0999 V2000
    1.3300   -1.3300    0.0000 Si  0  0  0  0  0  0  0  0  0  0  0  0
    0.0000   -1.3300    0.0000 Cl  0  0  0  0  0  0  0  0  0  0  0  0
    1.3300   -2.6600    0.0000 Cl  0  0  0  0  0  0  0  0  0  0  0  0
    1.3300   -0.0000    0.0000 C   0  0  0  0  0  0  0  0  0  0  0  0
    2.6600   -1.3300    0.0000 C   0  0  0  0  0  0  0  0  0  0  0  0
  1  2  1  0  0  0  0 
  1  3  1  0  0  0  0 
  1  4  1  0  0  0  0 
  1  5  1  0  0  0  0 
M  END
> <Name>
DICHLORODIMETHYLSILANE

> <Source>
DSSTox2DMolFile

> <Tox>
2.158

> <CAS>
75-78-5

$$$$

  CDK

  5  4  0  0  0  0  0  0  0  0999 V2000
    1.3406   -1.3406    0.0000 Si  0  0  0  0  0  0  0  0  0  0  0  0
    0.0000   -1.3406    0.0000 Cl  0  0  0  0  0  0  0  0  0  0  0  0
    1.3406   -0.0000    0.0000 Cl  0  0  0  0  0  0  0  0  0  0  0  0
    1.3406   -2.6600    0.0000 Cl  0  0  0  0  0  0  0  0  0  0  0  0
    2.6600   -1.3406    0.0000 C   0  0  0  0  0  0  0  0  0  0  0  0
  1  2  1  0  0  0  0 
  1  3  1  0  0  0  0 
  1  4  1  0  0  0  0 
  1  5  1  0  0  0  0 
M  END
> <Name>
METHYLTRICHLOROSILANE

> <Source>
DSSTox2DMolFile

> <Tox>
2.223

> <CAS>
75-79-6

$$$$

  CDK

  6  5  0  0  0  0  0  0  0  0999 V2000
    3.4542   -1.1537    0.0000 C   0  0  0  0  0  0  0  0  0  0  0  0
    2.3040   -0.4870    0.0000 C   0  0  0  0  0  0  0  0  0  0  0  0
    1.1503   -1.1537    0.0000 C   0  0  0  0  0  0  0  0  0  0  0  0
    1.8169   -2.3040    0.0000 C   0  0  0  0  0  0  0  0  0  0  0  0
    0.0000   -1.8169    0.0000 C   0  0  0  0  0  0  0  0  0  0  0  0
    0.4870   -0.0000    0.0000 C   0  0  0  0  0  0  0  0  0  0  0  0
  1  2  1  0  0  0  0 
  2  3  1  0  0  0  0 
  3  4  1  0  0  0  0 
  3  5  1  0  0  0  0 
  3  6  1  0  0  0  0 
M  END
> <Name>
2,2-DIMETHYLBUTANE

> <Source>
DSSTox2DMolFile

> <Tox>
2.504

> <CAS>
75-83-2

$$$$

  CDK

  6  5  0  0  0  0  0  0  0  0999 V2000
    1.3284   -2.6608    0.0000 C   0  0  0  0  0  0  0  0  0  0  0  0
    0.0000   -2.6608    0.0000 C   0  0  0  0  0  0  0  0  0  0  0  0
    2.6608   -2.6608    0.0000 C   0  0  0  0  0  0  0  0  0  0  0  0
    1.3284   -3.9892    0.0000 O   0  0  0  0  0  0  0  0  0  0  0  0
    1.3284   -1.3284    0.0000 C   0  0  0  0  0  0  0  0  0  0  0  0
    1.3284   -0.0000    0.0000 N   0  0  0  0  0  0  0  0  0  0  0  0
  1  2  1  0  0  0  0 
  1  3  1  0  0  0  0 
  1  4  1  0  0  0  0 
  1  5  1  0  0  0  0 
  5  6  3  0  0  0  0 
M  END
> <Name>
ACETONE CYANOHYDRIN

> <Source>
DSSTox2DMolFile

> <Tox>
-0.467

> <CAS>
75-86-5

$$$$

  CDK

  6  5  0  0  0  0  0  0  0  0999 V2000
    1.1503   -1.1537    0.0000 C   0  0  0  0  0  0  0  0  0  0  0  0
    0.4870   -0.0000    0.0000 F   0  0  0  0  0  0  0  0  0  0  0  0
    1.8169   -2.3040    0.0000 F   0  0  0  0  0  0  0  0  0  0  0  0
    0.0000   -1.8169    0.0000 F   0  0  0  0  0  0  0  0  0  0  0  0
    2.3040   -0.4870    0.0000 C   0  0  0  0  0  0  0  0  0  0  0  0
    3.4542   -1.1537    0.0000 O   0  0  0  0  0  0  0  0  0  0  0  0
  1  2  1  0  0  0  0 
  1  3  1  0  0  0  0 
  1  4  1  0  0  0  0 
  1  5  1  0  0  0  0 
  5  6  1  0  0  0  0 
M  END
> <Name>
2,2,2-TRIFLUOROETHANOL

> <Source>
DSSTox2DMolFile

> <Tox>
1.853

> <CAS>
75-89-8

$$$$

  CDK

  6  5  0  0  0  0  0  0  0  0999 V2000
    1.1503   -1.1537    0.0000 C   0  0  0  0  0  0  0  0  0  0  0  0
    0.4870   -0.0000    0.0000 C   0  0  0  0  0  0  0  0  0  0  0  0
    1.8169   -2.3040    0.0000 C   0  0  0  0  0  0  0  0  0  0  0  0
    0.0000   -1.8169    0.0000 C   0  0  0  0  0  0  0  0  0  0  0  0
    2.3040   -0.4870    0.0000 O   0  0  0  0  0  0  0  0  0  0  0  0
    3.4542   -1.1537    0.0000 O   0  0  0  0  0  0  0  0  0  0  0  0
  1  2  1  0  0  0  0 
  1  3  1  0  0  0  0 
  1  4  1  0  0  0  0 
  1  5  1  0  0  0  0 
  5  6  1  0  0  0  0 
M  END
> <Name>
TERT-BUTYLHYDROPEROXIDE

> <Source>
DSSTox2DMolFile

> <Tox>
0.738

> <CAS>
75-91-2

$$$$

  CDK

  6  5  0  0  0  0  0  0  0  0999 V2000
    1.3274   -1.3473    0.0000 Si  0  0  0  0  0  0  0  0  0  0  0  0
    0.0000   -1.3473    0.0000 Cl  0  0  0  0  0  0  0  0  0  0  0  0
    1.3274   -0.0000    0.0000 Cl  0  0  0  0  0  0  0  0  0  0  0  0
    1.3274   -2.6747    0.0000 Cl  0  0  0  0  0  0  0  0  0  0  0  0
    2.6548   -1.3473    0.0000 C   0  0  0  0  0  0  0  0  0  0  0  0
    3.3185   -2.4889    0.0000 C   0  0  0  0  0  0  0  0  0  0  0  0
  1  2  1  0  0  0  0 
  1  3  1  0  0  0  0 
  1  4  1  0  0  0  0 
  1  5  1  0  0  0  0 
  5  6  2  0  0  0  0 
M  END
> <Name>
VINYLTRICHLOROSILANE

> <Source>
DSSTox2DMolFile

> <Tox>
1.819

> <CAS>
75-94-5

$$$$

  CDK

  7  6  0  0  0  0  0  0  0  0999 V2000
    0.1796   -0.0000    0.0000 C   0  0  0  0  0  0  0  0  0  0  0  0
    1.3304   -0.6652    0.0000 C   0  0  0  0  0  0  0  0  0  0  0  0
    2.4812   -0.0000    0.0000 O   0  0  0  0  0  0  0  0  0  0  0  0
    1.3304   -1.9956    0.0000 C   0  0  0  0  0  0  0  0  0  0  0  0
    2.6608   -1.9956    0.0000 C   0  0  0  0  0  0  0  0  0  0  0  0
    1.3304   -3.3260    0.0000 C   0  0  0  0  0  0  0  0  0  0  0  0
    0.0000   -1.9956    0.0000 C   0  0  0  0  0  0  0  0  0  0  0  0
  1  2  1  0  0  0  0 
  2  3  2  0  0  0  0 
  2  4  1  0  0  0  0 
  4  5  1  0  0  0  0 
  4  6  1  0  0  0  0 
  4  7  1  0  0  0  0 
M  END
> <Name>
3,3-DIMETHYL-2-BUTANONE

> <Source>
DSSTox2DMolFile

> <Tox>
1.498

> <CAS>
75-97-8

$$$$

  CDK

  7  6  0  0  0  0  0  0  0  0999 V2000
    1.1520   -1.3284    0.0000 C   0  0  0  0  0  0  0  0  0  0  0  0
    2.3075   -1.9857    0.0000 C   0  0  0  0  0  0  0  0  0  0  0  0
    0.0000   -1.9857    0.0000 O   0  0  0  0  0  0  0  0  0  0  0  0
    1.1520   -0.0000    0.0000 O   0  0  0  0  0  0  0  0  0  0  0  0
    3.4595   -2.6569    0.0000 C   0  0  0  0  0  0  0  0  0  0  0  0
    2.9613   -0.8303    0.0000 C   0  0  0  0  0  0  0  0  0  0  0  0
    1.6329   -3.1378    0.0000 C   0  0  0  0  0  0  0  0  0  0  0  0
  1  2  1  0  0  0  0 
  1  3  1  0  0  0  0 
  1  4  2  0  0  0  0 
  2  5  1  0  0  0  0 
  2  6  1  0  0  0  0 
  2  7  1  0  0  0  0 
M  END
> <Name>
2,2-Dimethyl propanoic acid

> <Source>
DSSTox2DMolFile

> <Tox>
-0.301

> <CAS>
75-98-9

$$$$

  CDK

  7  6  0  0  0  0  0  0  0  0999 V2000
    2.6608   -1.9956    0.0000 Cl  0  0  0  0  0  0  0  0  0  0  0  0
    1.3304   -1.9956    0.0000 C   0  0  0  0  0  0  0  0  0  0  0  0
    1.3304   -0.6652    0.0000 C   0  0  0  0  0  0  0  0  0  0  0  0
    1.3304   -3.3260    0.0000 Cl  0  0  0  0  0  0  0  0  0  0  0  0
    0.0000   -1.9956    0.0000 Cl  0  0  0  0  0  0  0  0  0  0  0  0
    0.1796   -0.0000    0.0000 Cl  0  0  0  0  0  0  0  0  0  0  0  0
    2.4812   -0.0000    0.0000 Cl  0  0  0  0  0  0  0  0  0  0  0  0
  1  2  1  0  0  0  0 
  2  3  1  0  0  0  0 
  2  4  1  0  0  0  0 
  2  5  1  0  0  0  0 
  3  6  1  0  0  0  0 
  3  7  1  0  0  0  0 
M  END
> <Name>
PENTACHLOROETHANE

> <Source>
DSSTox2DMolFile

> <Tox>
0.544

> <CAS>
76-01-7

$$$$

  CDK

  7  6  0  0  0  0  0  0  0  0999 V2000
    2.6608   -1.9956    0.0000 Cl  0  0  0  0  0  0  0  0  0  0  0  0
    1.3304   -1.9956    0.0000 C   0  0  0  0  0  0  0  0  0  0  0  0
    1.3304   -0.6652    0.0000 C   0  0  0  0  0  0  0  0  0  0  0  0
    1.3304   -3.3260    0.0000 Cl  0  0  0  0  0  0  0  0  0  0  0  0
    0.0000   -1.9956    0.0000 Cl  0  0  0  0  0  0  0  0  0  0  0  0
    0.1796   -0.0000    0.0000 O   0  0  0  0  0  0  0  0  0  0  0  0
    2.4812   -0.0000    0.0000 O   0  0  0  0  0  0  0  0  0  0  0  0
  1  2  1  0  0  0  0 
  2  3  1  0  0  0  0 
  2  4  1  0  0  0  0 
  2  5  1  0  0  0  0 
  3  6  2  0  0  0  0 
  3  7  1  0  0  0  0 
M  END
> <Name>
TRICHLOROACETIC ACID

> <Source>
DSSTox2DMolFile

> <Tox>
-1.222

> <CAS>
76-03-9

$$$$

  CDK

  7  6  0  0  0  0  0  0  0  0999 V2000
   -1.0213    0.1260    0.0013 C   0  0  0  0  0  0  0  0  0  0  0  0
    0.5425    0.0119    0.0003 C   0  0  0  0  0  0  0  0  0  0  0  0
   -1.6786    1.1394    0.0006 O   0  0  0  0  0  0  0  0  0  0  0  0
   -1.6147   -1.0798    0.0006 O   0  0  0  0  0  0  0  0  0  0  0  0
    1.1652    1.2061    0.0276 F   0  0  0  0  0  0  0  0  0  0  0  0
    1.0237   -0.6698    1.0590 F   0  0  0  0  0  0  0  0  0  0  0  0
    1.0231   -0.6209   -1.0886 F   0  0  0  0  0  0  0  0  0  0  0  0
  1  2  1  0  0  0  0 
  1  3  2  0  0  0  0 
  1  4  1  0  0  0  0 
  2  5  1  0  0  0  0 
  2  6  1  0  0  0  0 
  2  7  1  0  0  0  0 
M  END
> <Name>
TRIFLUOROACETIC ACID

> <Source>
DougDB3DMolFile

> <Tox>
2.041

> <CAS>
76-05-1

$$$$

  CDK

  7  6  0  0  0  0  0  0  0  0999 V2000
    2.6608   -1.9956    0.0000 Cl  0  0  0  0  0  0  0  0  0  0  0  0
    1.3304   -1.9956    0.0000 C   0  0  0  0  0  0  0  0  0  0  0  0
    1.3304   -0.6652    0.0000 N   0  0  0  0  0  0  0  0  0  0  0  0
    1.3304   -3.3260    0.0000 Cl  0  0  0  0  0  0  0  0  0  0  0  0
    0.0000   -1.9956    0.0000 Cl  0  0  0  0  0  0  0  0  0  0  0  0
    0.1796   -0.0000    0.0000 O   0  0  0  0  0  0  0  0  0  0  0  0
    2.4812   -0.0000    0.0000 O   0  0  0  0  0  0  0  0  0  0  0  0
  1  2  1  0  0  0  0 
  2  3  1  0  0  0  0 
  2  4  1  0  0  0  0 
  2  5  1  0  0  0  0 
  3  6  2  0  0  0  0 
  3  7  1  0  0  0  0 
M  CHG  1   3   1
M  CHG  1   7  -1
M  END
> <Name>
TRICHLORONITROMETHANE

> <Source>
DSSTox2DMolFile

> <Tox>
1.377

> <CAS>
76-06-2

$$$$

  CDK

  8  7  0  0  0  0  0  0  0  0999 V2000
    0.4968    0.9937    0.0000 C   0  0  0  0  0  0  0  0  0  0  0  0
    0.0000    1.8383    0.0000 Cl  0  0  0  0  0  0  0  0  0  0  0  0
    1.4905    0.9937    0.0000 C   0  0  0  0  0  0  0  0  0  0  0  0
    0.0000    0.0994    0.0000 F   0  0  0  0  0  0  0  0  0  0  0  0
    0.7453    1.9377    0.0000 F   0  0  0  0  0  0  0  0  0  0  0  0
    1.9874    0.0994    0.0000 Cl  0  0  0  0  0  0  0  0  0  0  0  0
    1.9874    1.8383    0.0000 Cl  0  0  0  0  0  0  0  0  0  0  0  0
    1.2421    0.0000    0.0000 Cl  0  0  0  0  0  0  0  0  0  0  0  0
  1  2  1  0  0  0  0 
  1  3  1  0  0  0  0 
  1  4  1  0  0  0  0 
  1  5  1  0  0  0  0 
  3  6  1  0  0  0  0 
  3  7  1  0  0  0  0 
  3  8  1  0  0  0  0 
M  END
> <Name>
1,1,1,2-TETRACHLORO-2,2-DIFLUOROETHANE

> <Source>
NIST2DMolFile

> <Tox>
1.778

> <CAS>
76-11-9

$$$$

  CDK

  8  7  0  0  0  0  0  0  0  0999 V2000
    0.0000   -1.3283    0.0000 F   0  0  0  0  0  0  0  0  0  0  0  0
    1.3283   -1.3283    0.0000 C   0  0  0  0  0  0  0  0  0  0  0  0
    1.3283   -2.6606    0.0000 C   0  0  0  0  0  0  0  0  0  0  0  0
    1.3283   -0.0000    0.0000 Cl  0  0  0  0  0  0  0  0  0  0  0  0
    2.6606   -1.3283    0.0000 Cl  0  0  0  0  0  0  0  0  0  0  0  0
    2.6606   -2.6606    0.0000 F   0  0  0  0  0  0  0  0  0  0  0  0
    1.3283   -3.9889    0.0000 Cl  0  0  0  0  0  0  0  0  0  0  0  0
    0.0000   -2.6606    0.0000 Cl  0  0  0  0  0  0  0  0  0  0  0  0
  1  2  1  0  0  0  0 
  2  3  1  0  0  0  0 
  2  4  1  0  0  0  0 
  2  5  1  0  0  0  0 
  3  6  1  0  0  0  0 
  3  7  1  0  0  0  0 
  3  8  1  0  0  0  0 
M  END
> <Name>
1,1,2,2,-TETRACHLORODIFLUOROETHANE

> <Source>
DSSTox2DMolFile

> <Tox>
1.703

> <CAS>
76-12-0

$$$$

  CDK

  8  7  0  0  0  0  0  0  0  0999 V2000
    1.3283   -1.3283    0.0000 C   0  0  0  0  0  0  0  0  0  0  0  0
    1.3283   -2.6606    0.0000 C   0  0  0  0  0  0  0  0  0  0  0  0
    0.0000   -1.3283    0.0000 F   0  0  0  0  0  0  0  0  0  0  0  0
    1.3283   -0.0000    0.0000 F   0  0  0  0  0  0  0  0  0  0  0  0
    2.6606   -1.3283    0.0000 Cl  0  0  0  0  0  0  0  0  0  0  0  0
    2.6606   -2.6606    0.0000 F   0  0  0  0  0  0  0  0  0  0  0  0
    1.3283   -3.9889    0.0000 Cl  0  0  0  0  0  0  0  0  0  0  0  0
    0.0000   -2.6606    0.0000 Cl  0  0  0  0  0  0  0  0  0  0  0  0
  1  2  1  0  0  0  0 
  1  3  1  0  0  0  0 
  1  4  1  0  0  0  0 
  1  5  1  0  0  0  0 
  2  6  1  0  0  0  0 
  2  7  1  0  0  0  0 
  2  8  1  0  0  0  0 
M  END
> <Name>
1,1,2-TRICHLOROTRIFLUOROETHANE

> <Source>
DSSTox2DMolFile

> <Tox>
2.560

> <CAS>
76-13-1

$$$$

  CDK

  8  7  0  0  0  0  0  0  0  0999 V2000
    1.3340   -1.3340    0.0000 C   0  0  0  0  0  0  0  0  0  0  0  0
    1.3340   -2.6639    0.0000 C   0  0  0  0  0  0  0  0  0  0  0  0
    1.3340   -0.0000    0.0000 Cl  0  0  0  0  0  0  0  0  0  0  0  0
    2.6639   -1.3340    0.0000 F   0  0  0  0  0  0  0  0  0  0  0  0
    0.0000   -1.3180    0.0000 F   0  0  0  0  0  0  0  0  0  0  0  0
    0.0000   -2.6480    0.0000 Cl  0  0  0  0  0  0  0  0  0  0  0  0
    2.6639   -2.6639    0.0000 F   0  0  0  0  0  0  0  0  0  0  0  0
    1.3340   -3.9820    0.0000 F   0  0  0  0  0  0  0  0  0  0  0  0
  1  2  1  0  0  0  0 
  1  3  1  0  0  0  0 
  1  4  1  0  0  0  0 
  1  5  1  0  0  0  0 
  2  6  1  0  0  0  0 
  2  7  1  0  0  0  0 
  2  8  1  0  0  0  0 
M  END
> <Name>
1,2-DICHLOROTETRAFLUOROETHANE

> <Source>
DSSTox2DMolFile

> <Tox>
3.303

> <CAS>
76-14-2

$$$$

  CDK

  8  7  0  0  0  0  0  0  0  0999 V2000
    1.3277   -1.3437    0.0000 C   0  0  0  0  0  0  0  0  0  0  0  0
    1.3277   -2.6714    0.0000 C   0  0  0  0  0  0  0  0  0  0  0  0
    1.3277   -0.0000    0.0000 Cl  0  0  0  0  0  0  0  0  0  0  0  0
    0.0000   -1.3277    0.0000 F   0  0  0  0  0  0  0  0  0  0  0  0
    2.6554   -1.3437    0.0000 F   0  0  0  0  0  0  0  0  0  0  0  0
    0.0000   -2.6554    0.0000 F   0  0  0  0  0  0  0  0  0  0  0  0
    2.6554   -2.6714    0.0000 F   0  0  0  0  0  0  0  0  0  0  0  0
    1.3277   -3.9991    0.0000 F   0  0  0  0  0  0  0  0  0  0  0  0
  1  2  1  0  0  0  0 
  1  3  1  0  0  0  0 
  1  4  1  0  0  0  0 
  1  5  1  0  0  0  0 
  2  6  1  0  0  0  0 
  2  7  1  0  0  0  0 
  2  8  1  0  0  0  0 
M  END
> <Name>
CHLOROPENTAFLUOROETHANE

> <Source>
DSSTox2DMolFile

> <Tox>
3.836

> <CAS>
76-15-3

$$$$

  CDK

  8  7  0  0  0  0  0  0  0  0999 V2000
    2.0290    1.0145    0.0000 C   0  0  0  0  0  0  0  0  0  0  0  0
    1.0145    1.0145    0.0000 C   0  0  0  0  0  0  0  0  0  0  0  0
    2.0290    0.0000    0.0000 F   0  0  0  0  0  0  0  0  0  0  0  0
    2.0290    1.9783    0.0000 F   0  0  0  0  0  0  0  0  0  0  0  0
    3.0435    1.0145    0.0000 F   0  0  0  0  0  0  0  0  0  0  0  0
    1.0145    2.0290    0.0000 F   0  0  0  0  0  0  0  0  0  0  0  0
    1.0145    0.0507    0.0000 F   0  0  0  0  0  0  0  0  0  0  0  0
    0.0000    1.0145    0.0000 F   0  0  0  0  0  0  0  0  0  0  0  0
  1  2  1  0  0  0  0 
  1  3  1  0  0  0  0 
  1  4  1  0  0  0  0 
  1  5  1  0  0  0  0 
  2  6  1  0  0  0  0 
  2  7  1  0  0  0  0 
  2  8  1  0  0  0  0 
M  END
> <Name>
HEXAFLUOROETHANE

> <Source>
NIST2DMolFile

> <Tox>
4.400

> <CAS>
76-16-4

$$$$

  CDK

 11 12  0  0  0  0  0  0  0  0999 V2000
    1.3347   -2.2271    0.0000 C   0  0  0  0  0  0  0  0  0  0  0  0
    2.6733   -2.9876    0.0000 C   0  0  0  0  0  0  0  0  0  0  0  0
    1.8197   -0.9855    0.0000 C   0  0  0  0  0  0  0  0  0  0  0  0
    0.0000   -2.9876    0.0000 C   0  0  0  0  0  0  0  0  0  0  0  0
    0.4268   -1.6141    0.0000 C   0  0  0  0  0  0  0  0  0  0  0  0
    3.1545   -3.8800    0.0000 C   0  0  0  0  0  0  0  0  0  0  0  0
    3.4532   -2.2659    0.0000 O   0  0  0  0  0  0  0  0  0  0  0  0
    1.8197   -3.1001    0.0000 C   0  0  0  0  0  0  0  0  0  0  0  0
    2.6927   -0.6868    0.0000 C   0  0  0  0  0  0  0  0  0  0  0  0
    1.0787   -0.0000    0.0000 C   0  0  0  0  0  0  0  0  0  0  0  0
    0.4811   -3.8800    0.0000 C   0  0  0  0  0  0  0  0  0  0  0  0
  1  2  1  0  0  0  0 
  1  3  1  0  0  0  0 
  1  4  1  0  0  0  0 
  1  5  1  0  0  0  0 
  2  6  1  0  0  0  0 
  2  7  2  0  0  0  0 
  3  8  1  0  0  0  0 
  3  9  1  0  0  0  0 
  3 10  1  0  0  0  0 
  4 11  1  0  0  0  0 
  8  6  1  0  0  0  0 
  8 11  1  0  0  0  0 
M  END
> <Name>
CAMPHOR

> <Source>
DSSTox2DMolFile

> <Tox>
-0.187

> <CAS>
76-22-2

$$$$

  CDK

  8  7  0  0  0  0  0  0  0  0999 V2000
    0.5071    1.4198    0.0000 C   0  0  0  0  0  0  0  0  0  0  0  0
    0.0000    2.3325    0.0000 F   0  0  0  0  0  0  0  0  0  0  0  0
    0.0000    0.6085    0.0000 F   0  0  0  0  0  0  0  0  0  0  0  0
    1.4705    1.4198    0.0000 C   0  0  0  0  0  0  0  0  0  0  0  0
    1.4705    0.5071    0.0000 C   0  0  0  0  0  0  0  0  0  0  0  0
    1.4705    2.4339    0.0000 F   0  0  0  0  0  0  0  0  0  0  0  0
    2.5353    1.4198    0.0000 F   0  0  0  0  0  0  0  0  0  0  0  0
    2.3832    0.0000    0.0000 O   0  0  0  0  0  0  0  0  0  0  0  0
  1  2  1  0  0  0  0 
  1  3  1  0  0  0  0 
  1  4  1  0  0  0  0 
  4  5  1  0  0  0  0 
  4  6  1  0  0  0  0 
  4  7  1  0  0  0  0 
  5  8  1  0  0  0  0 
M  END
> <Name>
2,2,3,3-TETRAFLUOROPROPANOL

> <Source>
NIST2DMolFile

> <Tox>
1.167

> <CAS>
76-37-9

$$$$

  CDK

 17 19  0  0  0  0  0  0  0  0999 V2000
    3.2392   -3.7118    0.0000 C   0  0  0  0  0  0  0  0  0  0  0  0
    3.7637   -1.2104    0.0000 C   0  0  0  0  0  0  0  0  0  0  0  0
    4.1845   -4.2479    0.0000 C   0  0  0  0  0  0  0  0  0  0  0  0
    1.9481   -4.1787    0.0000 C   0  0  0  0  0  0  0  0  0  0  0  0
    2.3747   -4.8358    0.0000 Cl  0  0  0  0  0  0  0  0  0  0  0  0
    3.1297   -2.2651    0.0000 C   0  0  0  0  0  0  0  0  0  0  0  0
    4.6859   -0.4957    0.0000 Cl  0  0  0  0  0  0  0  0  0  0  0  0
    3.6081   -0.0000    0.0000 Cl  0  0  0  0  0  0  0  0  0  0  0  0
    4.2248   -2.9337    0.0000 C   0  0  0  0  0  0  0  0  0  0  0  0
    4.4669   -5.3026    0.0000 Cl  0  0  0  0  0  0  0  0  0  0  0  0
    1.9885   -2.8646    0.0000 C   0  0  0  0  0  0  0  0  0  0  0  0
    0.6974   -4.5418    0.0000 C   0  0  0  0  0  0  0  0  0  0  0  0
    2.2536   -1.3141    0.0000 Cl  0  0  0  0  0  0  0  0  0  0  0  0
    5.3372   -2.5476    0.0000 Cl  0  0  0  0  0  0  0  0  0  0  0  0
    0.7666   -2.4438    0.0000 C   0  0  0  0  0  0  0  0  0  0  0  0
    0.0000   -3.4582    0.0000 C   0  0  0  0  0  0  0  0  0  0  0  0
    0.2536   -5.7637    0.0000 Cl  0  0  0  0  0  0  0  0  0  0  0  0
  1  2  1  0  0  0  0 
  1  3  1  0  0  0  0 
  1  4  1  0  0  0  0 
  1  5  1  0  0  0  0 
  6  2  1  0  0  0  0 
  2  7  1  0  0  0  0 
  2  8  1  0  0  0  0 
  3  9  2  0  0  0  0 
  3 10  1  0  0  0  0 
  4 11  1  0  0  0  0 
  4 12  1  0  0  0  0 
  6 13  1  0  0  0  0 
  6 11  1  0  0  0  0 
  6  9  1  0  0  0  0 
  9 14  1  0  0  0  0 
 11 15  1  0  0  0  0 
 16 12  1  0  0  0  0 
 12 17  1  0  0  0  0 
 15 16  2  0  0  0  0 
M  END
> <Name>
HEPTACHLOR

> <Source>
DSSTox2DMolFile

> <Tox>
-3.398

> <CAS>
76-44-8

$$$$

  CDK

 14 15  0  0  0  0  0  0  0  0999 V2000
    2.9948    2.2732    0.0000 C   0  0  0  0  0  0  0  0  0  0  0  0
    2.8144    1.5876    0.0000 C   0  0  0  0  0  0  0  0  0  0  0  0
    1.6237    1.5876    0.0000 C   0  0  0  0  0  0  0  0  0  0  0  0
    2.6340    3.6804    0.0000 C   0  0  0  0  0  0  0  0  0  0  0  0
    4.2937    1.7319    0.0000 C   0  0  0  0  0  0  0  0  0  0  0  0
    1.1907    1.0103    0.0000 O   0  0  0  0  0  0  0  0  0  0  0  0
    1.8041    2.4536    0.0000 C   0  0  0  0  0  0  0  0  0  0  0  0
    1.9845    4.0051    0.0000 C   0  0  0  0  0  0  0  0  0  0  0  0
    2.7061    4.4020    0.0000 C   0  0  0  0  0  0  0  0  0  0  0  0
    3.1752    2.9948    0.0000 C   0  0  0  0  0  0  0  0  0  0  0  0
    4.5102    2.4536    0.0000 C   0  0  0  0  0  0  0  0  0  0  0  0
    0.4330    0.7577    0.0000 C   0  0  0  0  0  0  0  0  0  0  0  0
    0.0000    1.3350    0.0000 C   0  0  0  0  0  0  0  0  0  0  0  0
    0.2526    0.0000    0.0000 O   0  0  0  0  0  0  0  0  0  0  0  0
  1  2  1  0  0  0  0 
  1  3  1  0  0  0  0 
  1  4  1  0  0  0  0 
  5  1  1  0  0  0  0 
  3  6  1  6  0  0  0 
  3  7  1  0  0  0  0 
  4  8  1  0  0  0  0 
  4  9  1  0  0  0  0 
 10  4  1  0  0  0  0 
 11  5  1  0  0  0  0 
  6 12  1  0  0  0  0 
  7 10  1  0  0  0  0 
 10 11  1  0  0  0  0 
 12 13  1  0  0  0  0 
 12 14  2  0  0  0  0 
M  END
> <Name>
BORNYL ACETATE

> <Source>
NIST2DMolFile

> <Tox>
-0.642

> <CAS>
76-49-3

$$$$

  CDK

 10 12  0  0  0  0  0  0  0  0999 V2000
    1.3067   -1.7293    0.0000 C   0  0  0  0  0  0  0  0  0  0  0  0
    1.2144   -2.7591    0.0000 C   0  0  0  0  0  0  0  0  0  0  0  0
    3.1282   -0.9375    0.0000 C   0  0  0  0  0  0  0  0  0  0  0  0
    0.5586   -1.4961    0.0000 C   0  0  0  0  0  0  0  0  0  0  0  0
    2.8951   -1.8216    0.0000 C   0  0  0  0  0  0  0  0  0  0  0  0
    0.4663   -2.9437    0.0000 C   0  0  0  0  0  0  0  0  0  0  0  0
    2.4773   -0.0000    0.0000 C   0  0  0  0  0  0  0  0  0  0  0  0
    4.8575   -1.5884    0.0000 C   0  0  0  0  0  0  0  0  0  0  0  0
    0.0000   -2.1956    0.0000 C   0  0  0  0  0  0  0  0  0  0  0  0
    4.6244   -2.5211    0.0000 C   0  0  0  0  0  0  0  0  0  0  0  0
  1  2  1  0  0  0  0 
  1  3  1  0  0  0  0 
  1  4  1  0  0  0  0 
  2  5  1  0  0  0  0 
  2  6  1  0  0  0  0 
  3  7  1  0  0  0  0 
  3  8  1  0  0  0  0 
  4  9  2  0  0  0  0 
  5  7  1  0  0  0  0 
  5 10  1  0  0  0  0 
  6  9  1  0  0  0  0 
 10  8  2  0  0  0  0 
M  END
> <Name>
DICYCLOPENTADIENE

> <Source>
DSSTox2DMolFile

> <Tox>
0.360

> <CAS>
77-73-6

$$$$

  CDK

  7  6  0  0  0  0  0  0  0  0999 V2000
    4.2973   -2.3034    0.0000 C   0  0  0  0  0  0  0  0  0  0  0  0
    2.9694   -2.3034    0.0000 C   0  0  0  0  0  0  0  0  0  0  0  0
    2.3034   -1.1517    0.0000 C   0  0  0  0  0  0  0  0  0  0  0  0
    3.4550   -0.4856    0.0000 O   0  0  0  0  0  0  0  0  0  0  0  0
    1.6373   -0.0000    0.0000 C   0  0  0  0  0  0  0  0  0  0  0  0
    1.1517   -1.8178    0.0000 C   0  0  0  0  0  0  0  0  0  0  0  0
    0.0000   -1.1517    0.0000 C   0  0  0  0  0  0  0  0  0  0  0  0
  1  2  1  0  0  0  0 
  2  3  1  0  0  0  0 
  3  4  1  0  0  0  0 
  3  5  1  0  0  0  0 
  3  6  1  0  0  0  0 
  6  7  1  0  0  0  0 
M  END
> <Name>
3-METHYL-3-PENTANOL

> <Source>
DSSTox2DMolFile

> <Tox>
0.745

> <CAS>
77-74-7

$$$$

  CDK

  7  6  0  0  0  0  0  0  0  0999 V2000
    2.0042   -0.0000    0.0000 C   0  0  0  0  0  0  0  0  0  0  0  0
    2.0042   -1.3306    0.0000 C   0  0  0  0  0  0  0  0  0  0  0  0
    3.3347   -1.3306    0.0000 C   0  0  0  0  0  0  0  0  0  0  0  0
    0.6736   -1.3306    0.0000 O   0  0  0  0  0  0  0  0  0  0  0  0
    2.0042   -2.6611    0.0000 O   0  0  0  0  0  0  0  0  0  0  0  0
    0.0000   -0.1934    0.0000 C   0  0  0  0  0  0  0  0  0  0  0  0
    0.8504   -3.3347    0.0000 C   0  0  0  0  0  0  0  0  0  0  0  0
  1  2  1  0  0  0  0 
  2  3  1  0  0  0  0 
  2  4  1  0  0  0  0 
  2  5  1  0  0  0  0 
  4  6  1  0  0  0  0 
  5  7  1  0  0  0  0 
M  END
> <Name>
2,2-DIMETHOXYPROPANE

> <Source>
DSSTox2DMolFile

> <Tox>
2.009

> <CAS>
77-76-9

$$$$

  CDK

 10  9  0  0  0  0  0  0  0  0999 V2000
    2.5024    1.0510    0.0000 P   0  0  0  0  0  0  0  0  0  0  0  0
    1.5014    1.0510    0.0000 O   0  0  0  0  0  0  0  0  0  0  0  0
    3.5534    1.0510    0.0000 N   0  0  0  0  0  0  0  0  0  0  0  0
    2.5024    2.0520    0.0000 C   0  0  0  0  0  0  0  0  0  0  0  0
    2.5024    0.0000    0.0000 O   0  0  0  0  0  0  0  0  0  0  0  0
    1.0010    0.2502    0.0000 C   0  0  0  0  0  0  0  0  0  0  0  0
    4.0539    1.9018    0.0000 C   0  0  0  0  0  0  0  0  0  0  0  0
    4.0039    0.2002    0.0000 C   0  0  0  0  0  0  0  0  0  0  0  0
    2.5024    3.0529    0.0000 N   0  0  0  0  0  0  0  0  0  0  0  0
    0.0000    0.2502    0.0000 C   0  0  0  0  0  0  0  0  0  0  0  0
  1  2  1  0  0  0  0 
  1  3  1  0  0  0  0 
  1  4  1  0  0  0  0 
  1  5  2  0  0  0  0 
  2  6  1  0  0  0  0 
  3  7  1  0  0  0  0 
  3  8  1  0  0  0  0 
  4  9  3  0  0  0  0 
  6 10  1  0  0  0  0 
M  END
> <Name>
TABUN

> <Source>
NIST2DMolFile

> <Tox>
-1.155

> <CAS>
77-81-6

$$$$

  CDK

 13 12  0  0  0  0  0  0  0  0999 V2000
    0.9738   -1.9926    0.0000 O   0  0  0  0  0  0  0  0  0  0  0  0
    2.3021   -1.9926    0.0000 C   0  0  0  0  0  0  0  0  0  0  0  0
    2.3021   -3.3265    0.0000 C   0  0  0  0  0  0  0  0  0  0  0  0
    3.6361   -1.9926    0.0000 C   0  0  0  0  0  0  0  0  0  0  0  0
    2.3021   -0.6642    0.0000 C   0  0  0  0  0  0  0  0  0  0  0  0
    1.1539   -3.9907    0.0000 C   0  0  0  0  0  0  0  0  0  0  0  0
    4.3003   -3.1464    0.0000 C   0  0  0  0  0  0  0  0  0  0  0  0
    1.1539   -0.0000    0.0000 O   0  0  0  0  0  0  0  0  0  0  0  0
    3.4560   -0.0000    0.0000 O   0  0  0  0  0  0  0  0  0  0  0  0
    1.1539   -5.3191    0.0000 O   0  0  0  0  0  0  0  0  0  0  0  0
    0.0000   -3.3265    0.0000 O   0  0  0  0  0  0  0  0  0  0  0  0
    3.6361   -4.3003    0.0000 O   0  0  0  0  0  0  0  0  0  0  0  0
    5.6287   -3.1464    0.0000 O   0  0  0  0  0  0  0  0  0  0  0  0
  1  2  1  0  0  0  0 
  2  3  1  0  0  0  0 
  2  4  1  0  0  0  0 
  2  5  1  0  0  0  0 
  3  6  1  0  0  0  0 
  4  7  1  0  0  0  0 
  5  8  2  0  0  0  0 
  5  9  1  0  0  0  0 
  6 10  2  0  0  0  0 
  6 11  1  0  0  0  0 
  7 12  2  0  0  0  0 
  7 13  1  0  0  0  0 
M  END
> <Name>
CITRIC ACID

> <Source>
DSSTox2DMolFile

> <Tox>
-7.780

> <CAS>
77-92-9

$$$$

  CDK

  9  8  0  0  0  0  0  0  0  0999 V2000
    1.6330   -0.0000    0.0000 C   0  0  0  0  0  0  0  0  0  0  0  0
    2.3064   -1.1532    0.0000 C   0  0  0  0  0  0  0  0  0  0  0  0
    0.3045   -0.0000    0.0000 O   0  0  0  0  0  0  0  0  0  0  0  0
    3.4597   -0.4982    0.0000 C   0  0  0  0  0  0  0  0  0  0  0  0
    1.1532   -1.8267    0.0000 C   0  0  0  0  0  0  0  0  0  0  0  0
    2.9615   -2.3064    0.0000 C   0  0  0  0  0  0  0  0  0  0  0  0
    4.6129   -1.1532    0.0000 O   0  0  0  0  0  0  0  0  0  0  0  0
    0.0000   -1.1532    0.0000 C   0  0  0  0  0  0  0  0  0  0  0  0
    2.3064   -3.4597    0.0000 O   0  0  0  0  0  0  0  0  0  0  0  0
  1  2  1  0  0  0  0 
  1  3  1  0  0  0  0 
  2  4  1  0  0  0  0 
  2  5  1  0  0  0  0 
  2  6  1  0  0  0  0 
  4  7  1  0  0  0  0 
  5  8  1  0  0  0  0 
  6  9  1  0  0  0  0 
M  END
> <Name>
1,1,1-TRIS(HYDROXYMETHYL)PROPANE

> <Source>
DSSTox2DMolFile

> <Tox>
-4.348

> <CAS>
77-99-6

$$$$

  CDK

 12 11  0  0  0  0  0  0  0  0999 V2000
    1.5059    2.5099    0.0000 O   0  0  0  0  0  0  0  0  0  0  0  0
    2.5601    2.5099    0.0000 Si  0  0  0  0  0  0  0  0  0  0  0  0
    1.0040    3.3633    0.0000 C   0  0  0  0  0  0  0  0  0  0  0  0
    3.5139    2.5099    0.0000 O   0  0  0  0  0  0  0  0  0  0  0  0
    2.5601    1.5561    0.0000 O   0  0  0  0  0  0  0  0  0  0  0  0
    2.5601    3.5139    0.0000 C   0  0  0  0  0  0  0  0  0  0  0  0
    0.0000    3.3633    0.0000 C   0  0  0  0  0  0  0  0  0  0  0  0
    4.0158    1.6063    0.0000 C   0  0  0  0  0  0  0  0  0  0  0  0
    1.6565    1.0040    0.0000 C   0  0  0  0  0  0  0  0  0  0  0  0
    3.4135    4.0158    0.0000 C   0  0  0  0  0  0  0  0  0  0  0  0
    4.9696    1.6063    0.0000 C   0  0  0  0  0  0  0  0  0  0  0  0
    1.6565    0.0000    0.0000 C   0  0  0  0  0  0  0  0  0  0  0  0
  1  2  1  0  0  0  0 
  1  3  1  0  0  0  0 
  2  4  1  0  0  0  0 
  2  5  1  0  0  0  0 
  2  6  1  0  0  0  0 
  3  7  1  0  0  0  0 
  4  8  1  0  0  0  0 
  5  9  1  0  0  0  0 
  6 10  2  0  0  0  0 
  8 11  1  0  0  0  0 
  9 12  1  0  0  0  0 
M  END
> <Name>
TRIETHOXYVINYLSILANE

> <Source>
NIST2DMolFile

> <Tox>
0.358

> <CAS>
78-08-0

$$$$

  CDK

 13 12  0  0  0  0  0  0  0  0999 V2000
    3.3298   -3.3298    0.0000 Si  0  0  0  0  0  0  0  0  0  0  0  0
    1.9979   -3.3298    0.0000 O   0  0  0  0  0  0  0  0  0  0  0  0
    3.3298   -1.9979    0.0000 O   0  0  0  0  0  0  0  0  0  0  0  0
    3.3298   -4.6617    0.0000 O   0  0  0  0  0  0  0  0  0  0  0  0
    4.6617   -3.3298    0.0000 O   0  0  0  0  0  0  0  0  0  0  0  0
    1.3319   -2.1777    0.0000 C   0  0  0  0  0  0  0  0  0  0  0  0
    2.1777   -1.3319    0.0000 C   0  0  0  0  0  0  0  0  0  0  0  0
    4.4685   -5.3276    0.0000 C   0  0  0  0  0  0  0  0  0  0  0  0
    5.3143   -4.4819    0.0000 C   0  0  0  0  0  0  0  0  0  0  0  0
    0.0000   -2.1777    0.0000 C   0  0  0  0  0  0  0  0  0  0  0  0
    2.1777   -0.0000    0.0000 C   0  0  0  0  0  0  0  0  0  0  0  0
    4.4685   -6.6595    0.0000 C   0  0  0  0  0  0  0  0  0  0  0  0
    6.6462   -4.4819    0.0000 C   0  0  0  0  0  0  0  0  0  0  0  0
  1  2  1  0  0  0  0 
  1  3  1  0  0  0  0 
  1  4  1  0  0  0  0 
  1  5  1  0  0  0  0 
  2  6  1  0  0  0  0 
  3  7  1  0  0  0  0 
  4  8  1  0  0  0  0 
  5  9  1  0  0  0  0 
  6 10  1  0  0  0  0 
  7 11  1  0  0  0  0 
  8 12  1  0  0  0  0 
  9 13  1  0  0  0  0 
M  END
> <Name>
ETHYL SILICATE

> <Source>
DSSTox2DMolFile

> <Tox>
0.274

> <CAS>
78-10-4

$$$$

  CDK

 21 20  0  0  0  0  0  0  0  0999 V2000
    3.9892   -3.9892    0.0000 C   0  0  0  0  0  0  0  0  0  0  0  0
    3.9892   -5.3217    0.0000 C   0  0  0  0  0  0  0  0  0  0  0  0
    2.6568   -3.9892    0.0000 C   0  0  0  0  0  0  0  0  0  0  0  0
    3.9892   -2.6568    0.0000 C   0  0  0  0  0  0  0  0  0  0  0  0
    5.3217   -3.9892    0.0000 C   0  0  0  0  0  0  0  0  0  0  0  0
    5.1382   -5.9839    0.0000 O   0  0  0  0  0  0  0  0  0  0  0  0
    1.9946   -5.1382    0.0000 O   0  0  0  0  0  0  0  0  0  0  0  0
    2.8403   -1.9946    0.0000 O   0  0  0  0  0  0  0  0  0  0  0  0
    5.9839   -5.1382    0.0000 O   0  0  0  0  0  0  0  0  0  0  0  0
    5.1382   -7.3163    0.0000 N   0  0  0  0  0  0  0  0  0  0  0  0
    0.6622   -5.1382    0.0000 N   0  0  0  0  0  0  0  0  0  0  0  0
    2.8403   -0.6622    0.0000 N   0  0  0  0  0  0  0  0  0  0  0  0
    7.3163   -5.1382    0.0000 N   0  0  0  0  0  0  0  0  0  0  0  0
    3.9892   -7.9785    0.0000 O   0  0  0  0  0  0  0  0  0  0  0  0
    6.2950   -7.9785    0.0000 O   0  0  0  0  0  0  0  0  0  0  0  0
    0.0000   -6.2950    0.0000 O   0  0  0  0  0  0  0  0  0  0  0  0
    0.0000   -3.9892    0.0000 O   0  0  0  0  0  0  0  0  0  0  0  0
    1.6835   -0.0000    0.0000 O   0  0  0  0  0  0  0  0  0  0  0  0
    3.9892   -0.0000    0.0000 O   0  0  0  0  0  0  0  0  0  0  0  0
    7.9785   -3.9892    0.0000 O   0  0  0  0  0  0  0  0  0  0  0  0
    7.9785   -6.2950    0.0000 O   0  0  0  0  0  0  0  0  0  0  0  0
  1  2  1  0  0  0  0 
  1  3  1  0  0  0  0 
  1  4  1  0  0  0  0 
  1  5  1  0  0  0  0 
  2  6  1  0  0  0  0 
  3  7  1  0  0  0  0 
  4  8  1  0  0  0  0 
  5  9  1  0  0  0  0 
  6 10  1  0  0  0  0 
  7 11  1  0  0  0  0 
  8 12  1  0  0  0  0 
  9 13  1  0  0  0  0 
 10 14  1  0  0  0  0 
 10 15  2  0  0  0  0 
 11 16  1  0  0  0  0 
 11 17  2  0  0  0  0 
 12 18  1  0  0  0  0 
 12 19  2  0  0  0  0 
 13 20  1  0  0  0  0 
 13 21  2  0  0  0  0 
M  CHG  1  10   1
M  CHG  1  11   1
M  CHG  1  12   1
M  CHG  1  13   1
M  CHG  1  14  -1
M  CHG  1  16  -1
M  CHG  1  18  -1
M  CHG  1  20  -1
M  END
> <Name>
PENTAERYTHRITOL TETRANITRATE

> <Source>
DSSTox2DMolFile

> <Tox>
-8.264

> <CAS>
78-11-5

$$$$

  CDK

 10  9  0  0  0  0  0  0  0  0999 V2000
    0.0000   -3.1483    0.0000 C   0  0  0  0  0  0  0  0  0  0  0  0
    1.3295   -3.1483    0.0000 C   0  0  0  0  0  0  0  0  0  0  0  0
    1.9943   -1.9943    0.0000 O   0  0  0  0  0  0  0  0  0  0  0  0
    3.3238   -1.9943    0.0000 P   0  0  0  0  0  0  0  0  0  0  0  0
    3.3238   -3.3238    0.0000 O   0  0  0  0  0  0  0  0  0  0  0  0
    4.6533   -1.9943    0.0000 C   0  0  0  0  0  0  0  0  0  0  0  0
    3.3238   -0.6648    0.0000 O   0  0  0  0  0  0  0  0  0  0  0  0
    5.3180   -3.1483    0.0000 C   0  0  0  0  0  0  0  0  0  0  0  0
    2.1751   -0.0000    0.0000 C   0  0  0  0  0  0  0  0  0  0  0  0
    1.0211   -0.6648    0.0000 C   0  0  0  0  0  0  0  0  0  0  0  0
  1  2  1  0  0  0  0 
  2  3  1  0  0  0  0 
  3  4  1  0  0  0  0 
  4  5  2  0  0  0  0 
  4  6  1  0  0  0  0 
  4  7  1  0  0  0  0 
  6  8  1  0  0  0  0 
  7  9  1  0  0  0  0 
  9 10  1  0  0  0  0 
M  END
> <Name>
Phosphonic acid, ethyl-, diethyl ester

> <Source>
DSSTox2DMolFile

> <Tox>
-1.140

> <CAS>
78-38-6

$$$$

  CDK

 10 10  0  0  0  0  0  0  0  0999 V2000
    0.8533   -4.5763    0.0000 C   0  0  0  0  0  0  0  0  0  0  0  0
    1.3109   -3.3274    0.0000 C   0  0  0  0  0  0  0  0  0  0  0  0
    1.3109   -1.9974    0.0000 C   0  0  0  0  0  0  0  0  0  0  0  0
    2.4645   -3.9900    0.0000 C   0  0  0  0  0  0  0  0  0  0  0  0
    0.0000   -3.0938    0.0000 C   0  0  0  0  0  0  0  0  0  0  0  0
    2.4645   -1.3300    0.0000 C   0  0  0  0  0  0  0  0  0  0  0  0
    3.6134   -3.3274    0.0000 C   0  0  0  0  0  0  0  0  0  0  0  0
    3.6134   -1.9974    0.0000 C   0  0  0  0  0  0  0  0  0  0  0  0
    2.4645   -0.0000    0.0000 C   0  0  0  0  0  0  0  0  0  0  0  0
    4.7670   -3.9900    0.0000 O   0  0  0  0  0  0  0  0  0  0  0  0
  1  2  1  0  0  0  0 
  2  3  1  0  0  0  0 
  2  4  1  0  0  0  0 
  2  5  1  0  0  0  0 
  3  6  1  0  0  0  0 
  7  4  1  0  0  0  0 
  6  8  2  0  0  0  0 
  6  9  1  0  0  0  0 
  8  7  1  0  0  0  0 
  7 10  2  0  0  0  0 
M  END
> <Name>
ISOPHORONE

> <Source>
DSSTox2DMolFile

> <Tox>
-0.359

> <CAS>
78-59-1

$$$$

  CDK

  9  8  0  0  0  0  0  0  0  0999 V2000
    1.5062    1.0041    0.0000 O   0  0  0  0  0  0  0  0  0  0  0  0
    2.5104    1.0041    0.0000 Si  0  0  0  0  0  0  0  0  0  0  0  0
    1.0041    0.1004    0.0000 C   0  0  0  0  0  0  0  0  0  0  0  0
    3.5145    1.0041    0.0000 O   0  0  0  0  0  0  0  0  0  0  0  0
    2.5104    1.9581    0.0000 C   0  0  0  0  0  0  0  0  0  0  0  0
    2.5104    0.0000    0.0000 C   0  0  0  0  0  0  0  0  0  0  0  0
    0.0000    0.1506    0.0000 C   0  0  0  0  0  0  0  0  0  0  0  0
    4.0166    0.1506    0.0000 C   0  0  0  0  0  0  0  0  0  0  0  0
    5.0207    0.1506    0.0000 C   0  0  0  0  0  0  0  0  0  0  0  0
  1  2  1  0  0  0  0 
  1  3  1  0  0  0  0 
  2  4  1  0  0  0  0 
  2  5  1  0  0  0  0 
  2  6  1  0  0  0  0 
  3  7  1  0  0  0  0 
  4  8  1  0  0  0  0 
  8  9  1  0  0  0  0 
M  END
> <Name>
DIMETHYL DIETHOXYSILANE

> <Source>
NIST2DMolFile

> <Tox>
1.301

> <CAS>
78-62-6

$$$$

  CDK

 12 11  0  0  0  0  0  0  0  0999 V2000
    5.9782   -1.3301    0.0000 C   0  0  0  0  0  0  0  0  0  0  0  0
    5.9782   -2.6602    0.0000 C   0  0  0  0  0  0  0  0  0  0  0  0
    5.9782   -0.0000    0.0000 N   0  0  0  0  0  0  0  0  0  0  0  0
    7.3083   -2.6602    0.0000 C   0  0  0  0  0  0  0  0  0  0  0  0
    5.9782   -3.9903    0.0000 C   0  0  0  0  0  0  0  0  0  0  0  0
    4.6481   -2.6602    0.0000 N   0  0  0  0  0  0  0  0  0  0  0  0
    3.9903   -3.8149    0.0000 N   0  0  0  0  0  0  0  0  0  0  0  0
    2.6602   -3.8149    0.0000 C   0  0  0  0  0  0  0  0  0  0  0  0
    1.3301   -3.8149    0.0000 C   0  0  0  0  0  0  0  0  0  0  0  0
    2.6602   -5.1450    0.0000 C   0  0  0  0  0  0  0  0  0  0  0  0
    2.6602   -2.4848    0.0000 C   0  0  0  0  0  0  0  0  0  0  0  0
    0.0000   -3.8149    0.0000 N   0  0  0  0  0  0  0  0  0  0  0  0
  1  2  1  0  0  0  0 
  1  3  3  0  0  0  0 
  2  4  1  0  0  0  0 
  2  5  1  0  0  0  0 
  2  6  1  0  0  0  0 
  7  6  2  0  0  0  0 
  8  7  1  0  0  0  0 
  9  8  1  0  0  0  0 
  8 10  1  0  0  0  0 
  8 11  1  0  0  0  0 
  9 12  3  0  0  0  0 
M  END
> <Name>
2,2'-Azobis(2-methylpropionitrile)

> <Source>
DSSTox2DMolFile

> <Tox>
-2.174

> <CAS>
78-67-1

$$$$

  CDK

 11 10  0  0  0  0  0  0  0  0999 V2000
    1.6343   -0.0000    0.0000 O   0  0  0  0  0  0  0  0  0  0  0  0
    2.3019   -1.1475    0.0000 C   0  0  0  0  0  0  0  0  0  0  0  0
    1.1544   -1.8151    0.0000 C   0  0  0  0  0  0  0  0  0  0  0  0
    2.9695   -2.3019    0.0000 C   0  0  0  0  0  0  0  0  0  0  0  0
    3.4563   -0.4868    0.0000 C   0  0  0  0  0  0  0  0  0  0  0  0
    0.0000   -1.1475    0.0000 C   0  0  0  0  0  0  0  0  0  0  0  0
    4.2977   -2.3019    0.0000 C   0  0  0  0  0  0  0  0  0  0  0  0
    4.9584   -1.1475    0.0000 C   0  0  0  0  0  0  0  0  0  0  0  0
    6.2867   -1.1475    0.0000 C   0  0  0  0  0  0  0  0  0  0  0  0
    6.9543   -0.0000    0.0000 C   0  0  0  0  0  0  0  0  0  0  0  0
    6.9543   -2.3019    0.0000 C   0  0  0  0  0  0  0  0  0  0  0  0
  1  2  1  0  0  0  0 
  2  3  1  0  0  0  0 
  2  4  1  0  0  0  0 
  2  5  1  0  0  0  0 
  3  6  2  0  0  0  0 
  4  7  1  0  0  0  0 
  7  8  1  0  0  0  0 
  8  9  2  0  0  0  0 
  9 10  1  0  0  0  0 
  9 11  1  0  0  0  0 
M  END
> <Name>
LINALOOL

> <Source>
DSSTox2DMolFile

> <Tox>
-0.796

> <CAS>
78-70-6

$$$$

  CDK

  5  4  0  0  0  0  0  0  0  0999 V2000
   -0.4383    0.5327   -0.4672 C   0  0  0  0  0  0  0  0  0  0  0  0
    0.3878   -0.4181    0.3238 C   0  0  0  0  0  0  0  0  0  0  0  0
   -2.2795    0.1122    0.0416 Br  0  0  0  0  0  0  0  0  0  0  0  0
    0.3869   -1.8281   -0.1734 C   0  0  0  0  0  0  0  0  0  0  0  0
    2.2195    0.2078    0.0220 Br  0  0  0  0  0  0  0  0  0  0  0  0
  1  2  1  0  0  0  0 
  1  3  1  0  0  0  0 
  2  4  1  0  0  0  0 
  2  5  1  0  0  0  0 
M  END
> <Name>
1,2-DIBROMOPROPANE

> <Source>
DougDB3DMolFile

> <Tox>
0.894

> <CAS>
78-75-1

$$$$

  CDK

  5  4  0  0  0  0  0  0  0  0999 V2000
    3.4567   -1.9945    0.0000 C   0  0  0  0  0  0  0  0  0  0  0  0
    2.3056   -1.3308    0.0000 C   0  0  0  0  0  0  0  0  0  0  0  0
    2.3056   -0.0000    0.0000 Br  0  0  0  0  0  0  0  0  0  0  0  0
    1.1511   -1.9945    0.0000 C   0  0  0  0  0  0  0  0  0  0  0  0
    0.0000   -1.3308    0.0000 C   0  0  0  0  0  0  0  0  0  0  0  0
  1  2  1  0  0  0  0 
  2  3  1  0  0  0  0 
  2  4  1  0  0  0  0 
  4  5  1  0  0  0  0 
M  END
> <Name>
2-BROMOBUTANE

> <Source>
DSSTox2DMolFile

> <Tox>
1.756

> <CAS>
78-76-2

$$$$

  CDK

  5  4  0  0  0  0  0  0  0  0999 V2000
    2.3056   -1.3308    0.0000 C   0  0  0  0  0  0  0  0  0  0  0  0
    3.4567   -1.9945    0.0000 C   0  0  0  0  0  0  0  0  0  0  0  0
    2.3056   -0.0000    0.0000 C   0  0  0  0  0  0  0  0  0  0  0  0
    1.1511   -1.9945    0.0000 C   0  0  0  0  0  0  0  0  0  0  0  0
    0.0000   -1.3308    0.0000 C   0  0  0  0  0  0  0  0  0  0  0  0
  1  2  1  0  0  0  0 
  1  3  1  0  0  0  0 
  1  4  1  0  0  0  0 
  4  5  1  0  0  0  0 
M  END
> <Name>
ISOPENTANE

> <Source>
DSSTox2DMolFile

> <Tox>
2.838

> <CAS>
78-78-4

$$$$

  CDK

  5  4  0  0  0  0  0  0  0  0999 V2000
    0.0000   -1.3308    0.0000 N   0  0  0  0  0  0  0  0  0  0  0  0
    1.1511   -1.9945    0.0000 C   0  0  0  0  0  0  0  0  0  0  0  0
    2.3056   -1.3308    0.0000 C   0  0  0  0  0  0  0  0  0  0  0  0
    2.3056   -0.0000    0.0000 C   0  0  0  0  0  0  0  0  0  0  0  0
    3.4567   -1.9945    0.0000 C   0  0  0  0  0  0  0  0  0  0  0  0
  1  2  1  0  0  0  0 
  2  3  1  0  0  0  0 
  3  4  1  0  0  0  0 
  3  5  1  0  0  0  0 
M  END
> <Name>
ISOBUTYLAMINE

> <Source>
DSSTox2DMolFile

> <Tox>
2.140

> <CAS>
78-81-9

$$$$

  CDK

  5  4  0  0  0  0  0  0  0  0999 V2000
    1.1488   -0.6693    0.0000 C   0  0  0  0  0  0  0  0  0  0  0  0
    2.3011   -1.3420    0.0000 C   0  0  0  0  0  0  0  0  0  0  0  0
    0.0000   -0.0000    0.0000 N   0  0  0  0  0  0  0  0  0  0  0  0
    3.4500   -0.6693    0.0000 C   0  0  0  0  0  0  0  0  0  0  0  0
    2.3011   -2.6668    0.0000 C   0  0  0  0  0  0  0  0  0  0  0  0
  1  2  1  0  0  0  0 
  1  3  3  0  0  0  0 
  2  4  1  0  0  0  0 
  2  5  1  0  0  0  0 
M  END
> <Name>
2-METHYLPROPANENITRILE

> <Source>
DSSTox2DMolFile

> <Tox>
1.515

> <CAS>
78-82-0

$$$$

  CDK

  5  4  0  0  0  0  0  0  0  0999 V2000
    0.0000   -1.3308    0.0000 O   0  0  0  0  0  0  0  0  0  0  0  0
    1.1511   -1.9945    0.0000 C   0  0  0  0  0  0  0  0  0  0  0  0
    2.3056   -1.3308    0.0000 C   0  0  0  0  0  0  0  0  0  0  0  0
    2.3056   -0.0000    0.0000 C   0  0  0  0  0  0  0  0  0  0  0  0
    3.4567   -1.9945    0.0000 C   0  0  0  0  0  0  0  0  0  0  0  0
  1  2  1  0  0  0  0 
  2  3  1  0  0  0  0 
  3  4  1  0  0  0  0 
  3  5  1  0  0  0  0 
M  END
> <Name>
ISOBUTYL ALCOHOL

> <Source>
DSSTox2DMolFile

> <Tox>
1.021

> <CAS>
78-83-1

$$$$

  CDK

  5  4  0  0  0  0  0  0  0  0999 V2000
    3.4567   -1.9945    0.0000 C   0  0  0  0  0  0  0  0  0  0  0  0
    2.3056   -1.3308    0.0000 C   0  0  0  0  0  0  0  0  0  0  0  0
    2.3056   -0.0000    0.0000 C   0  0  0  0  0  0  0  0  0  0  0  0
    1.1511   -1.9945    0.0000 C   0  0  0  0  0  0  0  0  0  0  0  0
    0.0000   -1.3308    0.0000 O   0  0  0  0  0  0  0  0  0  0  0  0
  1  2  1  0  0  0  0 
  2  3  1  0  0  0  0 
  2  4  1  0  0  0  0 
  4  5  2  0  0  0  0 
M  END
> <Name>
ISOBUTYRALDEHYDE

> <Source>
DSSTox2DMolFile

> <Tox>
2.238

> <CAS>
78-84-2

$$$$

  CDK

  5  4  0  0  0  0  0  0  0  0999 V2000
   -0.8398    0.6197   -0.0115 C   0  0  0  0  0  0  0  0  0  0  0  0
   -1.8389   -0.0617    0.0094 O   0  0  0  0  0  0  0  0  0  0  0  0
    0.5424    0.0659   -0.0022 C   0  0  0  0  0  0  0  0  0  0  0  0
    0.7107   -1.4085   -0.0031 C   0  0  0  0  0  0  0  0  0  0  0  0
    1.5831    0.9017    0.0066 C   0  0  0  0  0  0  0  0  0  0  0  0
  1  2  2  0  0  0  0 
  1  3  1  0  0  0  0 
  3  4  1  0  0  0  0 
  3  5  2  0  0  0  0 
M  END
> <Name>
METHACROLEIN

> <Source>
DougDB3DMolFile

> <Tox>
2.190

> <CAS>
78-85-3

$$$$

  CDK

  5  4  0  0  0  0  0  0  0  0999 V2000
    3.4567   -1.9945    0.0000 C   0  0  0  0  0  0  0  0  0  0  0  0
    2.3056   -1.3308    0.0000 C   0  0  0  0  0  0  0  0  0  0  0  0
    1.1511   -1.9945    0.0000 C   0  0  0  0  0  0  0  0  0  0  0  0
    2.3056   -0.0000    0.0000 Cl  0  0  0  0  0  0  0  0  0  0  0  0
    0.0000   -1.3308    0.0000 Cl  0  0  0  0  0  0  0  0  0  0  0  0
  1  2  1  0  0  0  0 
  2  3  1  0  0  0  0 
  2  4  1  0  0  0  0 
  3  5  1  0  0  0  0 
M  END
> <Name>
1,2-DICHLOROPROPANE

> <Source>
DSSTox2DMolFile

> <Tox>
1.727

> <CAS>
78-87-5

$$$$

  CDK

  5  4  0  0  0  0  0  0  0  0999 V2000
    2.3056   -1.3308    0.0000 C   0  0  0  0  0  0  0  0  0  0  0  0
    3.4567   -1.9945    0.0000 C   0  0  0  0  0  0  0  0  0  0  0  0
    2.3056   -0.0000    0.0000 Cl  0  0  0  0  0  0  0  0  0  0  0  0
    1.1511   -1.9945    0.0000 C   0  0  0  0  0  0  0  0  0  0  0  0
    0.0000   -1.3308    0.0000 Cl  0  0  0  0  0  0  0  0  0  0  0  0
  1  2  2  0  0  0  0 
  1  3  1  0  0  0  0 
  1  4  1  0  0  0  0 
  4  5  1  0  0  0  0 
M  END
> <Name>
2,3-DICHLOROPROPENE

> <Source>
DSSTox2DMolFile

> <Tox>
1.787

> <CAS>
78-88-6

$$$$

  CDK

  5  4  0  0  0  0  0  0  0  0999 V2000
    0.0000   -1.3308    0.0000 N   0  0  0  0  0  0  0  0  0  0  0  0
    1.1511   -1.9945    0.0000 C   0  0  0  0  0  0  0  0  0  0  0  0
    2.3056   -1.3308    0.0000 C   0  0  0  0  0  0  0  0  0  0  0  0
    2.3056   -0.0000    0.0000 N   0  0  0  0  0  0  0  0  0  0  0  0
    3.4567   -1.9945    0.0000 C   0  0  0  0  0  0  0  0  0  0  0  0
  1  2  1  0  0  0  0 
  2  3  1  0  0  0  0 
  3  4  1  0  0  0  0 
  3  5  1  0  0  0  0 
M  END
> <Name>
1,2-DIAMINOPROPANE

> <Source>
DSSTox2DMolFile

> <Tox>
1.025

> <CAS>
78-90-0

$$$$

  CDK

  5  4  0  0  0  0  0  0  0  0999 V2000
    3.4567   -1.9945    0.0000 C   0  0  0  0  0  0  0  0  0  0  0  0
    2.3056   -1.3308    0.0000 C   0  0  0  0  0  0  0  0  0  0  0  0
    2.3056   -0.0000    0.0000 O   0  0  0  0  0  0  0  0  0  0  0  0
    1.1511   -1.9945    0.0000 C   0  0  0  0  0  0  0  0  0  0  0  0
    0.0000   -1.3308    0.0000 C   0  0  0  0  0  0  0  0  0  0  0  0
  1  2  1  0  0  0  0 
  2  3  1  0  0  0  0 
  2  4  1  0  0  0  0 
  4  5  1  0  0  0  0 
M  END
> <Name>
2-BUTANOL

> <Source>
DSSTox2DMolFile

> <Tox>
1.262

> <CAS>
78-92-2

$$$$

  CDK

  5  4  0  0  0  0  0  0  0  0999 V2000
    3.4567   -1.9945    0.0000 Cl  0  0  0  0  0  0  0  0  0  0  0  0
    2.3056   -1.3308    0.0000 C   0  0  0  0  0  0  0  0  0  0  0  0
    1.1511   -1.9945    0.0000 C   0  0  0  0  0  0  0  0  0  0  0  0
    2.3056   -0.0000    0.0000 Cl  0  0  0  0  0  0  0  0  0  0  0  0
    0.0000   -1.3308    0.0000 Cl  0  0  0  0  0  0  0  0  0  0  0  0
  1  2  1  0  0  0  0 
  2  3  1  0  0  0  0 
  2  4  1  0  0  0  0 
  3  5  1  0  0  0  0 
M  END
> <Name>
1,1,2-TRICHLOROETHANE

> <Source>
DSSTox2DMolFile

> <Tox>
1.362

> <CAS>
79-00-5

$$$$

  CDK

  5  4  0  0  0  0  0  0  0  0999 V2000
    3.4567   -1.9945    0.0000 Cl  0  0  0  0  0  0  0  0  0  0  0  0
    2.3056   -1.3308    0.0000 C   0  0  0  0  0  0  0  0  0  0  0  0
    1.1511   -1.9945    0.0000 C   0  0  0  0  0  0  0  0  0  0  0  0
    2.3056   -0.0000    0.0000 Cl  0  0  0  0  0  0  0  0  0  0  0  0
    0.0000   -1.3308    0.0000 Cl  0  0  0  0  0  0  0  0  0  0  0  0
  1  2  1  0  0  0  0 
  2  3  2  0  0  0  0 
  2  4  1  0  0  0  0 
  3  5  1  0  0  0  0 
M  END
> <Name>
TRICHLOROETHENE

> <Source>
DSSTox2DMolFile

> <Tox>
1.839

> <CAS>
79-01-6

$$$$

  CDK

  5  4  0  0  0  0  0  0  0  0999 V2000
    3.4567   -1.9945    0.0000 Cl  0  0  0  0  0  0  0  0  0  0  0  0
    2.3056   -1.3308    0.0000 C   0  0  0  0  0  0  0  0  0  0  0  0
    2.3056   -0.0000    0.0000 Cl  0  0  0  0  0  0  0  0  0  0  0  0
    1.1511   -1.9945    0.0000 C   0  0  0  0  0  0  0  0  0  0  0  0
    0.0000   -1.3308    0.0000 O   0  0  0  0  0  0  0  0  0  0  0  0
  1  2  1  0  0  0  0 
  2  3  1  0  0  0  0 
  2  4  1  0  0  0  0 
  4  5  2  0  0  0  0 
M  END
> <Name>
DICHLOROACETALDEHYDE

> <Source>
DSSTox2DMolFile

> <Tox>
1.744

> <CAS>
79-02-7

$$$$

  CDK

  5  4  0  0  0  0  0  0  0  0999 V2000
    2.6597   -2.3060    0.0000 Cl  0  0  0  0  0  0  0  0  0  0  0  0
    1.9868   -1.1517    0.0000 C   0  0  0  0  0  0  0  0  0  0  0  0
    2.6437   -0.0000    0.0000 O   0  0  0  0  0  0  0  0  0  0  0  0
    0.6569   -1.1517    0.0000 C   0  0  0  0  0  0  0  0  0  0  0  0
    0.0000   -2.3060    0.0000 Cl  0  0  0  0  0  0  0  0  0  0  0  0
  1  2  1  0  0  0  0 
  2  3  2  0  0  0  0 
  2  4  1  0  0  0  0 
  4  5  1  0  0  0  0 
M  END
> <Name>
CHLOROACETYLCHLORIDE

> <Source>
DSSTox2DMolFile

> <Tox>
1.401

> <CAS>
79-04-9

$$$$

  CDK

  5  4  0  0  0  0  0  0  0  0999 V2000
    2.1563    2.4530    1.2204 C   0  0  0  0  0  0  0  0  0  0  0  0
    0.8789    1.7142    1.5534 C   0  0  0  0  0  0  0  0  0  0  0  0
    3.3793    1.6408    1.5956 C   0  0  0  0  0  0  0  0  0  0  0  0
    3.7376    0.5621    0.7850 N   0  0  0  0  0  0  0  0  0  0  0  0
    4.0978    1.8651    2.5635 O   0  0  0  0  0  0  0  0  0  0  0  0
  1  2  1  0  0  0  0 
  1  3  1  0  0  0  0 
  3  4  1  0  0  0  0 
  3  5  2  0  0  0  0 
M  END
> <Name>
PROPRIONAMIDE

> <Source>
NIST3DMolFile

> <Tox>
-1.423

> <CAS>
79-05-0

$$$$

  CDK

  5  4  0  0  0  0  0  0  0  0999 V2000
    3.4567   -1.9945    0.0000 N   0  0  0  0  0  0  0  0  0  0  0  0
    2.3056   -1.3308    0.0000 C   0  0  0  0  0  0  0  0  0  0  0  0
    2.3056   -0.0000    0.0000 O   0  0  0  0  0  0  0  0  0  0  0  0
    1.1511   -1.9945    0.0000 C   0  0  0  0  0  0  0  0  0  0  0  0
    0.0000   -1.3308    0.0000 C   0  0  0  0  0  0  0  0  0  0  0  0
  1  2  1  0  0  0  0 
  2  3  2  0  0  0  0 
  2  4  1  0  0  0  0 
  4  5  2  0  0  0  0 
M  END
> <Name>
ACRYLAMIDE

> <Source>
DSSTox2DMolFile

> <Tox>
-2.155

> <CAS>
79-06-1

$$$$

  CDK

  5  4  0  0  0  0  0  0  0  0999 V2000
    2.3056   -0.0000    0.0000 O   0  0  0  0  0  0  0  0  0  0  0  0
    2.3056   -1.3308    0.0000 C   0  0  0  0  0  0  0  0  0  0  0  0
    3.4567   -1.9945    0.0000 O   0  0  0  0  0  0  0  0  0  0  0  0
    1.1511   -1.9945    0.0000 C   0  0  0  0  0  0  0  0  0  0  0  0
    0.0000   -1.3308    0.0000 Br  0  0  0  0  0  0  0  0  0  0  0  0
  1  2  2  0  0  0  0 
  2  3  1  0  0  0  0 
  2  4  1  0  0  0  0 
  4  5  1  0  0  0  0 
M  END
> <Name>
BROMOACETIC ACID

> <Source>
DSSTox2DMolFile

> <Tox>
-0.924

> <CAS>
79-08-3

$$$$

  CDK

  5  4  0  0  0  0  0  0  0  0999 V2000
    2.3056   -0.0000    0.0000 O   0  0  0  0  0  0  0  0  0  0  0  0
    2.3056   -1.3308    0.0000 C   0  0  0  0  0  0  0  0  0  0  0  0
    3.4567   -1.9945    0.0000 O   0  0  0  0  0  0  0  0  0  0  0  0
    1.1511   -1.9945    0.0000 C   0  0  0  0  0  0  0  0  0  0  0  0
    0.0000   -1.3308    0.0000 C   0  0  0  0  0  0  0  0  0  0  0  0
  1  2  2  0  0  0  0 
  2  3  1  0  0  0  0 
  2  4  1  0  0  0  0 
  4  5  1  0  0  0  0 
M  END
> <Name>
PROPIONIC ACID

> <Source>
DSSTox2DMolFile

> <Tox>
0.548

> <CAS>
79-09-4

$$$$

  CDK

  5  4  0  0  0  0  0  0  0  0999 V2000
    3.4567   -1.9945    0.0000 O   0  0  0  0  0  0  0  0  0  0  0  0
    2.3056   -1.3308    0.0000 C   0  0  0  0  0  0  0  0  0  0  0  0
    2.3056   -0.0000    0.0000 O   0  0  0  0  0  0  0  0  0  0  0  0
    1.1511   -1.9945    0.0000 C   0  0  0  0  0  0  0  0  0  0  0  0
    0.0000   -1.3308    0.0000 C   0  0  0  0  0  0  0  0  0  0  0  0
  1  2  1  0  0  0  0 
  2  3  2  0  0  0  0 
  2  4  1  0  0  0  0 
  4  5  2  0  0  0  0 
M  END
> <Name>
ACRYLIC ACID

> <Source>
DSSTox2DMolFile

> <Tox>
0.599

> <CAS>
79-10-7

$$$$

  CDK

  5  4  0  0  0  0  0  0  0  0999 V2000
    3.4567   -1.9945    0.0000 O   0  0  0  0  0  0  0  0  0  0  0  0
    2.3056   -1.3308    0.0000 C   0  0  0  0  0  0  0  0  0  0  0  0
    2.3056   -0.0000    0.0000 O   0  0  0  0  0  0  0  0  0  0  0  0
    1.1511   -1.9945    0.0000 C   0  0  0  0  0  0  0  0  0  0  0  0
    0.0000   -1.3308    0.0000 Cl  0  0  0  0  0  0  0  0  0  0  0  0
  1  2  1  0  0  0  0 
  2  3  2  0  0  0  0 
  2  4  1  0  0  0  0 
  4  5  1  0  0  0  0 
M  END
> <Name>
CHLOROACETIC ACID

> <Source>
DSSTox2DMolFile

> <Tox>
-1.187

> <CAS>
79-11-8

$$$$

  CDK

  5  4  0  0  0  0  0  0  0  0999 V2000
    3.4567   -1.9945    0.0000 C   0  0  0  0  0  0  0  0  0  0  0  0
    2.3056   -1.3308    0.0000 C   0  0  0  0  0  0  0  0  0  0  0  0
    2.3056   -0.0000    0.0000 O   0  0  0  0  0  0  0  0  0  0  0  0
    1.1511   -1.9945    0.0000 O   0  0  0  0  0  0  0  0  0  0  0  0
    0.0000   -1.3308    0.0000 C   0  0  0  0  0  0  0  0  0  0  0  0
  1  2  1  0  0  0  0 
  2  3  2  0  0  0  0 
  2  4  1  0  0  0  0 
  4  5  1  0  0  0  0 
M  END
> <Name>
METHYL ACETATE

> <Source>
DSSTox2DMolFile

> <Tox>
2.334

> <CAS>
79-20-9

$$$$

  CDK

  5  4  0  0  0  0  0  0  0  0999 V2000
    2.3056   -0.0000    0.0000 O   0  0  0  0  0  0  0  0  0  0  0  0
    2.3056   -1.3308    0.0000 C   0  0  0  0  0  0  0  0  0  0  0  0
    1.1511   -1.9945    0.0000 O   0  0  0  0  0  0  0  0  0  0  0  0
    3.4567   -1.9945    0.0000 C   0  0  0  0  0  0  0  0  0  0  0  0
    0.0000   -1.3308    0.0000 O   0  0  0  0  0  0  0  0  0  0  0  0
  1  2  2  0  0  0  0 
  2  3  1  0  0  0  0 
  2  4  1  0  0  0  0 
  3  5  1  0  0  0  0 
M  END
> <Name>
PEROXYACETIC ACID

> <Source>
DSSTox2DMolFile

> <Tox>
1.161

> <CAS>
79-21-0

$$$$

  CDK

  5  4  0  0  0  0  0  0  0  0999 V2000
    1.1511   -0.0000    0.0000 O   0  0  0  0  0  0  0  0  0  0  0  0
    1.1511   -1.3308    0.0000 N   0  0  0  0  0  0  0  0  0  0  0  0
    2.3056   -1.9945    0.0000 C   0  0  0  0  0  0  0  0  0  0  0  0
    0.0000   -1.9945    0.0000 O   0  0  0  0  0  0  0  0  0  0  0  0
    3.4567   -1.3308    0.0000 C   0  0  0  0  0  0  0  0  0  0  0  0
  1  2  2  0  0  0  0 
  2  3  1  0  0  0  0 
  2  4  1  0  0  0  0 
  3  5  1  0  0  0  0 
M  CHG  1   2   1
M  CHG  1   4  -1
M  END
> <Name>
NITROETHANE

> <Source>
DSSTox2DMolFile

> <Tox>
1.318

> <CAS>
79-24-3

$$$$

  CDK

  6  5  0  0  0  0  0  0  0  0999 V2000
    1.9943   -1.1509    0.0000 C   0  0  0  0  0  0  0  0  0  0  0  0
    3.3250   -1.1509    0.0000 Br  0  0  0  0  0  0  0  0  0  0  0  0
    1.3307   -0.0000    0.0000 Br  0  0  0  0  0  0  0  0  0  0  0  0
    1.3307   -2.3053    0.0000 C   0  0  0  0  0  0  0  0  0  0  0  0
    1.9943   -3.4563    0.0000 Br  0  0  0  0  0  0  0  0  0  0  0  0
    0.0000   -2.3053    0.0000 Br  0  0  0  0  0  0  0  0  0  0  0  0
  1  2  1  0  0  0  0 
  1  3  1  0  0  0  0 
  1  4  1  0  0  0  0 
  4  5  1  0  0  0  0 
  4  6  1  0  0  0  0 
M  END
> <Name>
1,1,2,2-TETRABROMOETHANE

> <Source>
DSSTox2DMolFile

> <Tox>
-1.699

> <CAS>
79-27-6

$$$$

  CDK

  6  5  0  0  0  0  0  0  0  0999 V2000
    1.9943   -1.1509    0.0000 C   0  0  0  0  0  0  0  0  0  0  0  0
    1.3307   -2.3053    0.0000 C   0  0  0  0  0  0  0  0  0  0  0  0
    1.3307   -0.0000    0.0000 C   0  0  0  0  0  0  0  0  0  0  0  0
    3.3250   -1.1509    0.0000 C   0  0  0  0  0  0  0  0  0  0  0  0
    1.9943   -3.4563    0.0000 C   0  0  0  0  0  0  0  0  0  0  0  0
    0.0000   -2.3053    0.0000 C   0  0  0  0  0  0  0  0  0  0  0  0
  1  2  1  0  0  0  0 
  1  3  1  0  0  0  0 
  1  4  1  0  0  0  0 
  2  5  1  0  0  0  0 
  2  6  1  0  0  0  0 
M  END
> <Name>
2,3-DIMETHYLBUTANE

> <Source>
DSSTox2DMolFile

> <Tox>
2.371

> <CAS>
79-29-8

$$$$

  CDK

  6  5  0  0  0  0  0  0  0  0999 V2000
    3.3250   -1.1509    0.0000 C   0  0  0  0  0  0  0  0  0  0  0  0
    1.9943   -1.1509    0.0000 C   0  0  0  0  0  0  0  0  0  0  0  0
    1.3307   -0.0000    0.0000 C   0  0  0  0  0  0  0  0  0  0  0  0
    1.3307   -2.3053    0.0000 C   0  0  0  0  0  0  0  0  0  0  0  0
    1.9943   -3.4563    0.0000 O   0  0  0  0  0  0  0  0  0  0  0  0
    0.0000   -2.3053    0.0000 O   0  0  0  0  0  0  0  0  0  0  0  0
  1  2  1  0  0  0  0 
  2  3  1  0  0  0  0 
  2  4  1  0  0  0  0 
  4  5  1  0  0  0  0 
  4  6  2  0  0  0  0 
M  END
> <Name>
ISOBUTYRIC ACID

> <Source>
DSSTox2DMolFile

> <Tox>
0.258

> <CAS>
79-31-2

$$$$

  CDK

  6  5  0  0  0  0  0  0  0  0999 V2000
    1.3307   -0.0000    0.0000 Cl  0  0  0  0  0  0  0  0  0  0  0  0
    1.9943   -1.1509    0.0000 C   0  0  0  0  0  0  0  0  0  0  0  0
    1.3307   -2.3053    0.0000 C   0  0  0  0  0  0  0  0  0  0  0  0
    3.3250   -1.1509    0.0000 Cl  0  0  0  0  0  0  0  0  0  0  0  0
    1.9943   -3.4563    0.0000 Cl  0  0  0  0  0  0  0  0  0  0  0  0
    0.0000   -2.3053    0.0000 Cl  0  0  0  0  0  0  0  0  0  0  0  0
  1  2  1  0  0  0  0 
  2  3  1  0  0  0  0 
  2  4  1  0  0  0  0 
  3  5  1  0  0  0  0 
  3  6  1  0  0  0  0 
M  END
> <Name>
1,1,2,2-TETRACHLOROETHANE

> <Source>
DSSTox2DMolFile

> <Tox>
0.665

> <CAS>
79-34-5

$$$$

  CDK

  6  5  0  0  0  0  0  0  0  0999 V2000
    1.3307   -0.0000    0.0000 O   0  0  0  0  0  0  0  0  0  0  0  0
    1.9943   -1.1509    0.0000 C   0  0  0  0  0  0  0  0  0  0  0  0
    1.3307   -2.3053    0.0000 C   0  0  0  0  0  0  0  0  0  0  0  0
    3.3250   -1.1509    0.0000 Cl  0  0  0  0  0  0  0  0  0  0  0  0
    1.9943   -3.4563    0.0000 Cl  0  0  0  0  0  0  0  0  0  0  0  0
    0.0000   -2.3053    0.0000 Cl  0  0  0  0  0  0  0  0  0  0  0  0
  1  2  2  0  0  0  0 
  2  3  1  0  0  0  0 
  2  4  1  0  0  0  0 
  3  5  1  0  0  0  0 
  3  6  1  0  0  0  0 
M  END
> <Name>
DICHLOROACETYL CHLORIDE

> <Source>
DSSTox2DMolFile

> <Tox>
1.362

> <CAS>
79-36-7

$$$$

  CDK

  6  5  0  0  0  0  0  0  0  0999 V2000
    0.6711   -1.1524    0.0000 C   0  0  0  0  0  0  0  0  0  0  0  0
    2.0027   -1.1524    0.0000 C   0  0  0  0  0  0  0  0  0  0  0  0
    0.0000   -0.0000    0.0000 Cl  0  0  0  0  0  0  0  0  0  0  0  0
    0.0160   -2.3049    0.0000 F   0  0  0  0  0  0  0  0  0  0  0  0
    2.6578   -2.3049    0.0000 F   0  0  0  0  0  0  0  0  0  0  0  0
    2.6738   -0.0000    0.0000 F   0  0  0  0  0  0  0  0  0  0  0  0
  1  2  2  0  0  0  0 
  1  3  1  0  0  0  0 
  1  4  1  0  0  0  0 
  2  5  1  0  0  0  0 
  2  6  1  0  0  0  0 
M  END
> <Name>
CHLOROTRIFLUOROETHYLENE

> <Source>
DSSTox2DMolFile

> <Tox>
3.662

> <CAS>
79-38-9

$$$$

  CDK

  6  5  0  0  0  0  0  0  0  0999 V2000
    1.1494   -1.3255    0.0000 C   0  0  0  0  0  0  0  0  0  0  0  0
    2.3023   -1.9986    0.0000 C   0  0  0  0  0  0  0  0  0  0  0  0
    0.0000   -1.9986    0.0000 N   0  0  0  0  0  0  0  0  0  0  0  0
    1.1494   -0.0000    0.0000 O   0  0  0  0  0  0  0  0  0  0  0  0
    3.4518   -1.3255    0.0000 C   0  0  0  0  0  0  0  0  0  0  0  0
    2.3023   -3.3241    0.0000 C   0  0  0  0  0  0  0  0  0  0  0  0
  1  2  1  0  0  0  0 
  1  3  1  0  0  0  0 
  1  4  2  0  0  0  0 
  2  5  2  0  0  0  0 
  2  6  1  0  0  0  0 
M  END
> <Name>
Methacrylamide

> <Source>
DSSTox2DMolFile

> <Tox>
-1.071

> <CAS>
79-39-0

$$$$

  CDK

  6  5  0  0  0  0  0  0  0  0999 V2000
    3.3250   -1.1509    0.0000 C   0  0  0  0  0  0  0  0  0  0  0  0
    1.9943   -1.1509    0.0000 C   0  0  0  0  0  0  0  0  0  0  0  0
    1.3307   -0.0000    0.0000 C   0  0  0  0  0  0  0  0  0  0  0  0
    1.3307   -2.3053    0.0000 C   0  0  0  0  0  0  0  0  0  0  0  0
    1.9943   -3.4563    0.0000 O   0  0  0  0  0  0  0  0  0  0  0  0
    0.0000   -2.3053    0.0000 O   0  0  0  0  0  0  0  0  0  0  0  0
  1  2  1  0  0  0  0 
  2  3  2  0  0  0  0 
  2  4  1  0  0  0  0 
  4  5  1  0  0  0  0 
  4  6  2  0  0  0  0 
M  END
> <Name>
METHACRYLIC ACID

> <Source>
DSSTox2DMolFile

> <Tox>
-0.004

> <CAS>
79-41-4

$$$$

  CDK

  6  5  0  0  0  0  0  0  0  0999 V2000
    3.3250   -1.1509    0.0000 O   0  0  0  0  0  0  0  0  0  0  0  0
    1.9943   -1.1509    0.0000 C   0  0  0  0  0  0  0  0  0  0  0  0
    1.3307   -0.0000    0.0000 O   0  0  0  0  0  0  0  0  0  0  0  0
    1.3307   -2.3053    0.0000 C   0  0  0  0  0  0  0  0  0  0  0  0
    1.9943   -3.4563    0.0000 Cl  0  0  0  0  0  0  0  0  0  0  0  0
    0.0000   -2.3053    0.0000 Cl  0  0  0  0  0  0  0  0  0  0  0  0
  1  2  1  0  0  0  0 
  2  3  2  0  0  0  0 
  2  4  1  0  0  0  0 
  4  5  1  0  0  0  0 
  4  6  1  0  0  0  0 
M  END
> <Name>
DICHLOROACETIC ACID

> <Source>
DSSTox2DMolFile

> <Tox>
-0.747

> <CAS>
79-43-6

$$$$

  CDK

  6  5  0  0  0  0  0  0  0  0999 V2000
    1.3307   -0.0000    0.0000 O   0  0  0  0  0  0  0  0  0  0  0  0
    1.9943   -1.1509    0.0000 C   0  0  0  0  0  0  0  0  0  0  0  0
    1.3307   -2.3053    0.0000 N   0  0  0  0  0  0  0  0  0  0  0  0
    3.3250   -1.1509    0.0000 Cl  0  0  0  0  0  0  0  0  0  0  0  0
    1.9943   -3.4563    0.0000 C   0  0  0  0  0  0  0  0  0  0  0  0
    0.0000   -2.3053    0.0000 C   0  0  0  0  0  0  0  0  0  0  0  0
  1  2  2  0  0  0  0 
  2  3  1  0  0  0  0 
  2  4  1  0  0  0  0 
  3  5  1  0  0  0  0 
  3  6  1  0  0  0  0 
M  END
> <Name>
DIMETHYLCARBAMYL CHLORIDE

> <Source>
DSSTox2DMolFile

> <Tox>
0.290

> <CAS>
79-44-7

$$$$

  CDK

  6  5  0  0  0  0  0  0  0  0999 V2000
    1.3307   -0.0000    0.0000 C   0  0  0  0  0  0  0  0  0  0  0  0
    1.9943   -1.1509    0.0000 C   0  0  0  0  0  0  0  0  0  0  0  0
    1.3307   -2.3053    0.0000 N   0  0  0  0  0  0  0  0  0  0  0  0
    3.3250   -1.1509    0.0000 C   0  0  0  0  0  0  0  0  0  0  0  0
    1.9943   -3.4563    0.0000 O   0  0  0  0  0  0  0  0  0  0  0  0
    0.0000   -2.3053    0.0000 O   0  0  0  0  0  0  0  0  0  0  0  0
  1  2  1  0  0  0  0 
  2  3  1  0  0  0  0 
  2  4  1  0  0  0  0 
  3  5  2  0  0  0  0 
  3  6  1  0  0  0  0 
M  CHG  1   3   1
M  CHG  1   6  -1
M  END
> <Name>
2-NITROPROPANE

> <Source>
DSSTox2DMolFile

> <Tox>
1.236

> <CAS>
79-46-9

$$$$

  CDK

 10 11  0  0  0  0  0  0  0  0999 V2000
    1.3183   -0.6515    0.0000 C   0  0  0  0  0  0  0  0  0  0  0  0
    2.6061   -1.1087    0.0000 C   0  0  0  0  0  0  0  0  0  0  0  0
    0.0000   -0.9944    0.0000 C   0  0  0  0  0  0  0  0  0  0  0  0
    1.7755   -0.0000    0.0000 C   0  0  0  0  0  0  0  0  0  0  0  0
    2.5718   -2.3470    0.0000 C   0  0  0  0  0  0  0  0  0  0  0  0
    3.4367   -0.1143    0.0000 C   0  0  0  0  0  0  0  0  0  0  0  0
    3.8101   -1.7755    0.0000 C   0  0  0  0  0  0  0  0  0  0  0  0
    0.0000   -2.3470    0.0000 C   0  0  0  0  0  0  0  0  0  0  0  0
    1.4173   -1.7755    0.0000 C   0  0  0  0  0  0  0  0  0  0  0  0
    3.2233   -3.3719    0.0000 C   0  0  0  0  0  0  0  0  0  0  0  0
  1  2  1  0  0  0  0 
  1  3  1  0  0  0  0 
  1  4  1  0  0  0  0 
  2  5  1  0  0  0  0 
  2  6  1  0  0  0  0 
  2  7  1  0  0  0  0 
  8  3  1  0  0  0  0 
  9  4  1  0  0  0  0 
  5  9  1  0  0  0  0 
  5 10  2  0  0  0  0 
  9  8  1  0  0  0  0 
M  END
> <Name>
CAMPHENE

> <Source>
DSSTox2DMolFile

> <Tox>
0.400

> <CAS>
79-92-5

$$$$

  CDK

 11 11  0  0  0  0  0  0  0  0999 V2000
    3.9882   -0.6647    0.0000 O   0  0  0  0  0  0  0  0  0  0  0  0
    5.1367   -0.0000    0.0000 O   0  0  0  0  0  0  0  0  0  0  0  0
    3.9882   -1.9941    0.0000 C   0  0  0  0  0  0  0  0  0  0  0  0
    2.6588   -1.9941    0.0000 C   0  0  0  0  0  0  0  0  0  0  0  0
    5.3175   -1.9941    0.0000 C   0  0  0  0  0  0  0  0  0  0  0  0
    3.9882   -3.3235    0.0000 C   0  0  0  0  0  0  0  0  0  0  0  0
    1.9941   -3.1480    0.0000 C   0  0  0  0  0  0  0  0  0  0  0  0
    1.9941   -0.8402    0.0000 C   0  0  0  0  0  0  0  0  0  0  0  0
    0.6647   -3.1480    0.0000 C   0  0  0  0  0  0  0  0  0  0  0  0
    0.6647   -0.8402    0.0000 C   0  0  0  0  0  0  0  0  0  0  0  0
    0.0000   -1.9941    0.0000 C   0  0  0  0  0  0  0  0  0  0  0  0
  1  2  1  0  0  0  0 
  1  3  1  0  0  0  0 
  3  4  1  0  0  0  0 
  3  5  1  0  0  0  0 
  3  6  1  0  0  0  0 
  4  7  2  0  0  0  0 
  4  8  1  0  0  0  0 
  7  9  1  0  0  0  0 
 10  8  2  0  0  0  0 
  9 11  2  0  0  0  0 
 11 10  1  0  0  0  0 
M  END
> <Name>
CUMENE HYDROPEROXIDE

> <Source>
DSSTox2DMolFile

> <Tox>
-2.485

> <CAS>
80-15-9

$$$$

  CDK

 12 12  0  0  0  0  0  0  0  0999 V2000
    6.4728   -0.0000    0.0000 C   0  0  0  0  0  0  0  0  0  0  0  0
    5.3220   -0.6652    0.0000 C   0  0  0  0  0  0  0  0  0  0  0  0
    5.3220   -1.9957    0.0000 C   0  0  0  0  0  0  0  0  0  0  0  0
    5.3220   -3.3262    0.0000 C   0  0  0  0  0  0  0  0  0  0  0  0
    6.6525   -1.9957    0.0000 C   0  0  0  0  0  0  0  0  0  0  0  0
    3.9915   -1.9957    0.0000 C   0  0  0  0  0  0  0  0  0  0  0  0
    3.3262   -3.1466    0.0000 C   0  0  0  0  0  0  0  0  0  0  0  0
    3.3262   -0.8449    0.0000 C   0  0  0  0  0  0  0  0  0  0  0  0
    1.9957   -3.1466    0.0000 C   0  0  0  0  0  0  0  0  0  0  0  0
    1.9957   -0.8449    0.0000 C   0  0  0  0  0  0  0  0  0  0  0  0
    1.3305   -1.9957    0.0000 C   0  0  0  0  0  0  0  0  0  0  0  0
    0.0000   -1.9957    0.0000 O   0  0  0  0  0  0  0  0  0  0  0  0
  1  2  1  0  0  0  0 
  2  3  1  0  0  0  0 
  3  4  1  0  0  0  0 
  3  5  1  0  0  0  0 
  3  6  1  0  0  0  0 
  6  7  2  0  0  0  0 
  6  8  1  0  0  0  0 
  7  9  1  0  0  0  0 
 10  8  2  0  0  0  0 
  9 11  2  0  0  0  0 
 11 10  1  0  0  0  0 
 11 12  1  0  0  0  0 
M  END
> <Name>
P-TERT-AMYLPHENOL

> <Source>
DSSTox2DMolFile

> <Tox>
-2.699

> <CAS>
80-46-6

$$$$

  CDK

 10 11  0  0  0  0  0  0  0  0999 V2000
    2.2455   -0.9155    0.0000 C   0  0  0  0  0  0  0  0  0  0  0  0
    1.2048   -1.5200    0.0000 C   0  0  0  0  0  0  0  0  0  0  0  0
    3.2732   -1.5200    0.0000 C   0  0  0  0  0  0  0  0  0  0  0  0
    1.8828   -0.0000    0.0000 C   0  0  0  0  0  0  0  0  0  0  0  0
    1.2048   -2.7248    0.0000 C   0  0  0  0  0  0  0  0  0  0  0  0
    0.0000   -1.5200    0.0000 C   0  0  0  0  0  0  0  0  0  0  0  0
    0.5959   -0.4793    0.0000 C   0  0  0  0  0  0  0  0  0  0  0  0
    3.2732   -2.7248    0.0000 C   0  0  0  0  0  0  0  0  0  0  0  0
    4.3183   -0.9155    0.0000 C   0  0  0  0  0  0  0  0  0  0  0  0
    2.2887   -2.1030    0.0000 C   0  0  0  0  0  0  0  0  0  0  0  0
  1  2  1  0  0  0  0 
  1  3  1  0  0  0  0 
  1  4  1  0  0  0  0 
  5  2  1  0  0  0  0 
  6  2  1  0  0  0  0 
  7  2  1  0  0  0  0 
  3  8  2  0  0  0  0 
  3  9  1  0  0  0  0 
  5  4  1  0  0  0  0 
  5 10  1  0  0  0  0 
  8 10  1  0  0  0  0 
M  END
> <Name>
ALPHA-PINENE

> <Source>
DSSTox2DMolFile

> <Tox>
0.677

> <CAS>
80-56-8

$$$$

  CDK

  7  6  0  0  0  0  0  0  0  0999 V2000
    2.5967    1.5480    0.0000 C   0  0  0  0  0  0  0  0  0  0  0  0
    1.7478    0.9987    0.0000 C   0  0  0  0  0  0  0  0  0  0  0  0
    2.5967    2.4968    0.0000 O   0  0  0  0  0  0  0  0  0  0  0  0
    3.4955    1.0487    0.0000 O   0  0  0  0  0  0  0  0  0  0  0  0
    0.8988    1.4981    0.0000 C   0  0  0  0  0  0  0  0  0  0  0  0
    1.7478    0.0000    0.0000 C   0  0  0  0  0  0  0  0  0  0  0  0
    0.0000    0.9987    0.0000 C   0  0  0  0  0  0  0  0  0  0  0  0
  1  2  1  0  0  0  0 
  1  3  1  0  0  0  0 
  1  4  2  0  0  0  0 
  2  5  2  0  0  0  0 
  2  6  1  0  0  0  0 
  5  7  1  0  0  0  0 
M  END
> <Name>
TIGLIC ACID

> <Source>
NIST2DMolFile

> <Tox>
-0.876

> <CAS>
80-59-1

$$$$

  CDK

 34 40  0  0  0  0  0  0  0  0999 V2000
    1.9894   -0.0000    0.0000 O   0  0  0  0  0  0  0  0  0  0  0  0
    2.6623   -1.1556    0.0000 C   0  0  0  0  0  0  0  0  0  0  0  0
    3.9935   -1.1556    0.0000 C   0  0  0  0  0  0  0  0  0  0  0  0
    1.9894   -2.3113    0.0000 C   0  0  0  0  0  0  0  0  0  0  0  0
    4.6518   -2.3113    0.0000 C   0  0  0  0  0  0  0  0  0  0  0  0
    4.6518   -0.0000    0.0000 C   0  0  0  0  0  0  0  0  0  0  0  0
    2.6623   -3.4523    0.0000 C   0  0  0  0  0  0  0  0  0  0  0  0
    0.6583   -2.3113    0.0000 C   0  0  0  0  0  0  0  0  0  0  0  0
    5.9830   -2.3113    0.0000 C   0  0  0  0  0  0  0  0  0  0  0  0
    3.9935   -3.4523    0.0000 C   0  0  0  0  0  0  0  0  0  0  0  0
    5.9830   -0.0000    0.0000 C   0  0  0  0  0  0  0  0  0  0  0  0
    1.9894   -4.6079    0.0000 C   0  0  0  0  0  0  0  0  0  0  0  0
    0.0000   -3.4523    0.0000 C   0  0  0  0  0  0  0  0  0  0  0  0
    6.6559   -3.4523    0.0000 N   0  0  0  0  0  0  0  0  0  0  0  0
    6.6559   -1.1556    0.0000 C   0  0  0  0  0  0  0  0  0  0  0  0
    4.6518   -4.6079    0.0000 O   0  0  0  0  0  0  0  0  0  0  0  0
    0.6583   -4.6079    0.0000 C   0  0  0  0  0  0  0  0  0  0  0  0
    7.9724   -3.4523    0.0000 C   0  0  0  0  0  0  0  0  0  0  0  0
    7.9724   -1.1556    0.0000 N   0  0  0  0  0  0  0  0  0  0  0  0
    8.6453   -2.3113    0.0000 C   0  0  0  0  0  0  0  0  0  0  0  0
    8.6453   -4.6079    0.0000 C   0  0  0  0  0  0  0  0  0  0  0  0
    9.9765   -2.3113    0.0000 C   0  0  0  0  0  0  0  0  0  0  0  0
    9.9765   -4.6079    0.0000 C   0  0  0  0  0  0  0  0  0  0  0  0
   10.6348   -3.4523    0.0000 C   0  0  0  0  0  0  0  0  0  0  0  0
   10.6348   -1.1556    0.0000 C   0  0  0  0  0  0  0  0  0  0  0  0
   11.9659   -3.4523    0.0000 C   0  0  0  0  0  0  0  0  0  0  0  0
   11.9659   -1.1556    0.0000 C   0  0  0  0  0  0  0  0  0  0  0  0
    9.9765   -0.0000    0.0000 O   0  0  0  0  0  0  0  0  0  0  0  0
   12.6388   -4.6079    0.0000 O   0  0  0  0  0  0  0  0  0  0  0  0
   12.6388   -2.3113    0.0000 C   0  0  0  0  0  0  0  0  0  0  0  0
   12.6388   -0.0000    0.0000 C   0  0  0  0  0  0  0  0  0  0  0  0
   13.9700   -2.3113    0.0000 C   0  0  0  0  0  0  0  0  0  0  0  0
   13.9700   -0.0000    0.0000 C   0  0  0  0  0  0  0  0  0  0  0  0
   14.6283   -1.1556    0.0000 C   0  0  0  0  0  0  0  0  0  0  0  0
  1  2  2  0  0  0  0 
  2  3  1  0  0  0  0 
  2  4  1  0  0  0  0 
  3  5  2  0  0  0  0 
  3  6  1  0  0  0  0 
  7  4  1  0  0  0  0 
  8  4  2  0  0  0  0 
  5  9  1  0  0  0  0 
  5 10  1  0  0  0  0 
 11  6  2  0  0  0  0 
 10  7  1  0  0  0  0 
  7 12  2  0  0  0  0 
 13  8  1  0  0  0  0 
  9 14  1  0  0  0  0 
  9 15  2  0  0  0  0 
 10 16  2  0  0  0  0 
 15 11  1  0  0  0  0 
 12 17  1  0  0  0  0 
 17 13  2  0  0  0  0 
 14 18  1  0  0  0  0 
 19 15  1  0  0  0  0 
 18 20  2  0  0  0  0 
 18 21  1  0  0  0  0 
 20 19  1  0  0  0  0 
 20 22  1  0  0  0  0 
 23 21  2  0  0  0  0 
 22 24  2  0  0  0  0 
 22 25  1  0  0  0  0 
 24 23  1  0  0  0  0 
 24 26  1  0  0  0  0 
 27 25  1  0  0  0  0 
 25 28  2  0  0  0  0 
 26 29  2  0  0  0  0 
 26 30  1  0  0  0  0 
 30 27  2  0  0  0  0 
 27 31  1  0  0  0  0 
 30 32  1  0  0  0  0 
 31 33  2  0  0  0  0 
 34 32  2  0  0  0  0 
 33 34  1  0  0  0  0 
M  END
> <Name>
C.I. VAT BLUE 4

> <Source>
DSSTox2DMolFile

> <Tox>
-17.699

> <CAS>
81-77-6

$$$$

  CDK

 19 21  0  0  0  0  0  0  0  0999 V2000
    0.3577    2.1810   -0.0002 O   0  0  0  0  0  0  0  0  0  0  0  0
   -0.0434    1.0240   -0.0008 C   0  0  0  0  0  0  0  0  0  0  0  0
    0.8732   -0.1343   -0.0008 C   0  0  0  0  0  0  0  0  0  0  0  0
   -1.5011    0.7849   -0.0005 C   0  0  0  0  0  0  0  0  0  0  0  0
    0.3691   -1.4366   -0.0009 C   0  0  0  0  0  0  0  0  0  0  0  0
    2.2570    0.0788   -0.0002 C   0  0  0  0  0  0  0  0  0  0  0  0
   -2.0053   -0.5174   -0.0004 C   0  0  0  0  0  0  0  0  0  0  0  0
   -2.3808    1.8741   -0.0002 C   0  0  0  0  0  0  0  0  0  0  0  0
   -1.0886   -1.6758   -0.0001 C   0  0  0  0  0  0  0  0  0  0  0  0
    1.2488   -2.5259   -0.0010 C   0  0  0  0  0  0  0  0  0  0  0  0
    2.8617    1.3686    0.0006 N   0  0  0  0  0  0  0  0  0  0  0  0
    3.1300   -1.0095    0.0001 C   0  0  0  0  0  0  0  0  0  0  0  0
   -3.3890   -0.7304   -0.0002 C   0  0  0  0  0  0  0  0  0  0  0  0
   -3.7590    1.6573    0.0005 C   0  0  0  0  0  0  0  0  0  0  0  0
   -1.5308   -2.8179    0.0024 O   0  0  0  0  0  0  0  0  0  0  0  0
    2.6270   -2.3090   -0.0003 C   0  0  0  0  0  0  0  0  0  0  0  0
    3.1178    1.9157   -1.0968 O   0  0  0  0  0  0  0  0  0  0  0  0
    3.1176    1.9144    1.0986 O   0  0  0  0  0  0  0  0  0  0  0  0
   -4.2620    0.3578    0.0002 C   0  0  0  0  0  0  0  0  0  0  0  0
  1  2  2  0  0  0  0 
  3  2  1  0  0  0  0 
  4  2  1  0  0  0  0 
  3  5  2  0  0  0  0 
  3  6  1  0  0  0  0 
  4  7  1  0  0  0  0 
  4  8  2  0  0  0  0 
  5  9  1  0  0  0  0 
  5 10  1  0  0  0  0 
 11  6  1  0  0  0  0 
  6 12  2  0  0  0  0 
  7  9  1  0  0  0  0 
  7 13  2  0  0  0  0 
  8 14  1  0  0  0  0 
 15  9  2  0  0  0  0 
 10 16  2  0  0  0  0 
 17 11  1  0  0  0  0 
 18 11  2  0  0  0  0 
 12 16  1  0  0  0  0 
 13 19  1  0  0  0  0 
 14 19  2  0  0  0  0 
M  CHG  1  11   1
M  CHG  1  17  -1
M  END
> <Name>
1-NITROANTHRAQUINONE

> <Source>
Chemidplus3DMolFile

> <Tox>
-8.398

> <CAS>
82-34-8

$$$$

  CDK

 18 20  0  0  0  0  0  0  0  0999 V2000
    1.7759    1.5222    0.0000 C   0  0  0  0  0  0  0  0  0  0  0  0
    1.7759    2.4863    0.0000 C   0  0  0  0  0  0  0  0  0  0  0  0
    0.9133    1.0148    0.0000 C   0  0  0  0  0  0  0  0  0  0  0  0
    2.6385    1.0148    0.0000 C   0  0  0  0  0  0  0  0  0  0  0  0
    0.9133    2.9937    0.0000 C   0  0  0  0  0  0  0  0  0  0  0  0
    2.6385    2.9937    0.0000 C   0  0  0  0  0  0  0  0  0  0  0  0
    0.0000    1.5222    0.0000 C   0  0  0  0  0  0  0  0  0  0  0  0
    3.4504    1.5222    0.0000 C   0  0  0  0  0  0  0  0  0  0  0  0
    2.6385    0.0000    0.0000 O   0  0  0  0  0  0  0  0  0  0  0  0
    0.0000    2.4863    0.0000 C   0  0  0  0  0  0  0  0  0  0  0  0
    3.4504    2.4863    0.0000 C   0  0  0  0  0  0  0  0  0  0  0  0
    2.6385    4.0085    0.0000 O   0  0  0  0  0  0  0  0  0  0  0  0
    4.3637    1.0148    0.0000 C   0  0  0  0  0  0  0  0  0  0  0  0
    4.3637    2.9937    0.0000 C   0  0  0  0  0  0  0  0  0  0  0  0
    5.2263    1.5222    0.0000 C   0  0  0  0  0  0  0  0  0  0  0  0
    5.2263    2.4863    0.0000 C   0  0  0  0  0  0  0  0  0  0  0  0
    4.3637    4.0085    0.0000 N   0  0  0  0  0  0  0  0  0  0  0  0
    5.2263    4.5159    0.0000 C   0  0  0  0  0  0  0  0  0  0  0  0
  1  2  2  0  0  0  0 
  1  3  1  0  0  0  0 
  4  1  1  0  0  0  0 
  5  2  1  0  0  0  0 
  2  6  1  0  0  0  0 
  3  7  2  0  0  0  0 
  8  4  1  0  0  0  0 
  4  9  2  0  0  0  0 
 10  5  2  0  0  0  0 
  6 11  1  0  0  0  0 
  6 12  2  0  0  0  0 
  7 10  1  0  0  0  0 
  8 11  2  0  0  0  0 
 13  8  1  0  0  0  0 
 11 14  1  0  0  0  0 
 15 13  2  0  0  0  0 
 14 16  2  0  0  0  0 
 14 17  1  0  0  0  0 
 16 15  1  0  0  0  0 
 17 18  1  0  0  0  0 
M  END
> <Name>
DISPERSE RED 9

> <Source>
NIST2DMolFile

> <Tox>
-8.155

> <CAS>
82-38-2

$$$$

  CDK

 18 20  0  0  0  0  0  0  0  0999 V2000
    5.9448    0.7129    4.2620 O   0  0  0  0  0  0  0  0  0  0  0  0
    6.1338   -0.4594    3.5920 C   0  0  0  0  0  0  0  0  0  0  0  0
    5.2621    0.6410    5.5116 C   0  0  0  0  0  0  0  0  0  0  0  0
    5.2116   -0.9619    2.6662 C   0  0  0  0  0  0  0  0  0  0  0  0
    7.3063   -1.1659    3.8618 C   0  0  0  0  0  0  0  0  0  0  0  0
    5.4669   -2.1702    2.0143 C   0  0  0  0  0  0  0  0  0  0  0  0
    3.9731   -0.2069    2.3866 C   0  0  0  0  0  0  0  0  0  0  0  0
    7.5613   -2.3714    3.2109 C   0  0  0  0  0  0  0  0  0  0  0  0
    4.5020   -2.7123    1.0361 C   0  0  0  0  0  0  0  0  0  0  0  0
    6.6448   -2.8758    2.2879 C   0  0  0  0  0  0  0  0  0  0  0  0
    3.7260    0.8547    2.9449 O   0  0  0  0  0  0  0  0  0  0  0  0
    3.0082   -0.7489    1.4082 C   0  0  0  0  0  0  0  0  0  0  0  0
    4.7248   -3.7733    0.4661 O   0  0  0  0  0  0  0  0  0  0  0  0
    3.2634   -1.9574    0.7567 C   0  0  0  0  0  0  0  0  0  0  0  0
    1.8305   -0.0432    1.1344 C   0  0  0  0  0  0  0  0  0  0  0  0
    2.3408   -2.4601   -0.1686 C   0  0  0  0  0  0  0  0  0  0  0  0
    0.9136   -0.5479    0.2118 C   0  0  0  0  0  0  0  0  0  0  0  0
    1.1682   -1.7539   -0.4382 C   0  0  0  0  0  0  0  0  0  0  0  0
  1  2  1  0  0  0  0 
  1  3  1  0  0  0  0 
  4  2  1  0  0  0  0 
  2  5  2  0  0  0  0 
  4  6  2  0  0  0  0 
  4  7  1  0  0  0  0 
  5  8  1  0  0  0  0 
  6  9  1  0  0  0  0 
  6 10  1  0  0  0  0 
 11  7  2  0  0  0  0 
 12  7  1  0  0  0  0 
 10  8  2  0  0  0  0 
 13  9  2  0  0  0  0 
 14  9  1  0  0  0  0 
 12 14  1  0  0  0  0 
 12 15  2  0  0  0  0 
 14 16  2  0  0  0  0 
 15 17  1  0  0  0  0 
 16 18  1  0  0  0  0 
 17 18  2  0  0  0  0 
M  END
> <Name>
1-METHOXY-9,10-ANTHRAQUINONE

> <Source>
Chemidplus3DMolFile

> <Tox>
-6.559

> <CAS>
82-39-3

$$$$

  CDK

 17 19  0  0  0  0  0  0  0  0999 V2000
    0.0000    0.0000    0.0000 O   0  0  0  0  0  0  0  0  0  0  0  0
    0.0400   -1.2200   -0.1000 C   0  0  0  0  0  0  0  0  0  0  0  0
    1.3400   -2.0000   -0.1400 C   0  0  0  0  0  0  0  0  0  0  0  0
   -1.2400   -2.0000   -0.2000 C   0  0  0  0  0  0  0  0  0  0  0  0
    1.3200   -3.4200   -0.2600 C   0  0  0  0  0  0  0  0  0  0  0  0
    2.5800   -1.3200   -0.0600 C   0  0  0  0  0  0  0  0  0  0  0  0
   -1.2200   -3.4200   -0.3000 C   0  0  0  0  0  0  0  0  0  0  0  0
   -2.4600   -1.3000   -0.1600 C   0  0  0  0  0  0  0  0  0  0  0  0
    0.0400   -4.2000   -0.3400 C   0  0  0  0  0  0  0  0  0  0  0  0
    2.5200   -4.1200   -0.2800 C   0  0  0  0  0  0  0  0  0  0  0  0
    3.7800   -2.0600   -0.1000 C   0  0  0  0  0  0  0  0  0  0  0  0
    2.7200    0.0400    0.0400 N   0  0  0  0  0  0  0  0  0  0  0  0
   -2.4600   -4.1000   -0.3800 C   0  0  0  0  0  0  0  0  0  0  0  0
   -3.6600   -2.0200   -0.2400 C   0  0  0  0  0  0  0  0  0  0  0  0
    0.0400   -5.4000   -0.4200 O   0  0  0  0  0  0  0  0  0  0  0  0
    3.7600   -3.4600   -0.2000 C   0  0  0  0  0  0  0  0  0  0  0  0
   -3.6600   -3.4000   -0.3600 C   0  0  0  0  0  0  0  0  0  0  0  0
  1  2  2  0  0  0  0 
  2  3  1  0  0  0  0 
  2  4  1  0  0  0  0 
  3  5  2  0  0  0  0 
  3  6  1  0  0  0  0 
  7  4  2  0  0  0  0 
  4  8  1  0  0  0  0 
  5  9  1  0  0  0  0 
  5 10  1  0  0  0  0 
 11  6  2  0  0  0  0 
  6 12  1  0  0  0  0 
  9  7  1  0  0  0  0 
  7 13  1  0  0  0  0 
  8 14  2  0  0  0  0 
  9 15  2  0  0  0  0 
 10 16  2  0  0  0  0 
 16 11  1  0  0  0  0 
 17 13  2  0  0  0  0 
 14 17  1  0  0  0  0 
M  END
> <Name>
1-AMINOANTHRAQUINONE

> <Source>
NIH3DMolFile

> <Tox>
-8.301

> <CAS>
82-45-1

$$$$

  CDK

 12 14  0  0  0  0  0  0  0  0999 V2000
    0.0000   -1.9950    0.0000 C   0  0  0  0  0  0  0  0  0  0  0  0
    0.0000   -0.6635    0.0000 C   0  0  0  0  0  0  0  0  0  0  0  0
    1.1519   -2.6585    0.0000 C   0  0  0  0  0  0  0  0  0  0  0  0
    1.1519   -0.0000    0.0000 C   0  0  0  0  0  0  0  0  0  0  0  0
    2.3037   -1.9950    0.0000 C   0  0  0  0  0  0  0  0  0  0  0  0
    1.6402   -3.8979    0.0000 C   0  0  0  0  0  0  0  0  0  0  0  0
    2.3037   -0.6635    0.0000 C   0  0  0  0  0  0  0  0  0  0  0  0
    3.4556   -2.6585    0.0000 C   0  0  0  0  0  0  0  0  0  0  0  0
    2.9672   -3.8979    0.0000 C   0  0  0  0  0  0  0  0  0  0  0  0
    3.4556   -0.0000    0.0000 C   0  0  0  0  0  0  0  0  0  0  0  0
    4.6074   -1.9950    0.0000 C   0  0  0  0  0  0  0  0  0  0  0  0
    4.6074   -0.6635    0.0000 C   0  0  0  0  0  0  0  0  0  0  0  0
  1  2  2  0  0  0  0 
  1  3  1  0  0  0  0 
  2  4  1  0  0  0  0 
  5  3  2  0  0  0  0 
  3  6  1  0  0  0  0 
  4  7  2  0  0  0  0 
  7  5  1  0  0  0  0 
  8  5  1  0  0  0  0 
  6  9  1  0  0  0  0 
  7 10  1  0  0  0  0 
 11  8  2  0  0  0  0 
  8  9  1  0  0  0  0 
 10 12  2  0  0  0  0 
 12 11  1  0  0  0  0 
M  END
> <Name>
ACENAPHTHENE

> <Source>
DSSTox2DMolFile

> <Tox>
-2.668

> <CAS>
83-32-9

$$$$

  CDK

 10 11  0  0  0  0  0  0  0  0999 V2000
   -0.7424    1.7866    0.0017 N   0  0  0  0  0  0  0  0  0  0  0  0
   -1.9339    1.0348    0.0039 C   0  0  0  0  0  0  0  0  0  0  0  0
    0.3513    0.9027   -0.0014 C   0  0  0  0  0  0  0  0  0  0  0  0
   -1.6122   -0.3098    0.0025 C   0  0  0  0  0  0  0  0  0  0  0  0
   -0.1759   -0.4176    0.0009 C   0  0  0  0  0  0  0  0  0  0  0  0
    1.7337    1.1458   -0.0038 C   0  0  0  0  0  0  0  0  0  0  0  0
   -2.5552   -1.4379   -0.0060 C   0  0  0  0  0  0  0  0  0  0  0  0
    0.7000   -1.5116    0.0045 C   0  0  0  0  0  0  0  0  0  0  0  0
    2.5676    0.0482   -0.0028 C   0  0  0  0  0  0  0  0  0  0  0  0
    2.0570   -1.2660    0.0022 C   0  0  0  0  0  0  0  0  0  0  0  0
  1  2  1  0  0  0  0 
  1  3  1  0  0  0  0 
  2  4  2  0  0  0  0 
  5  3  1  0  0  0  0 
  6  3  2  0  0  0  0 
  4  5  1  0  0  0  0 
  4  7  1  0  0  0  0 
  5  8  2  0  0  0  0 
  9  6  1  0  0  0  0 
  8 10  1  0  0  0  0 
 10  9  2  0  0  0  0 
M  END
> <Name>
3-METHYLINDOLE

> <Source>
DougDB3DMolFile

> <Tox>
-2.256

> <CAS>
83-34-1

$$$$

  CDK

 11 11  0  0  0  0  0  0  0  0999 V2000
    4.6557   -0.0000    0.0000 C   0  0  0  0  0  0  0  0  0  0  0  0
    3.9900   -1.1500    0.0000 C   0  0  0  0  0  0  0  0  0  0  0  0
    4.6557   -2.3046    0.0000 C   0  0  0  0  0  0  0  0  0  0  0  0
    2.6584   -1.1500    0.0000 C   0  0  0  0  0  0  0  0  0  0  0  0
    3.9900   -3.4545    0.0000 C   0  0  0  0  0  0  0  0  0  0  0  0
    1.9973   -2.3046    0.0000 C   0  0  0  0  0  0  0  0  0  0  0  0
    1.9973   -0.0000    0.0000 C   0  0  0  0  0  0  0  0  0  0  0  0
    2.6584   -3.4545    0.0000 C   0  0  0  0  0  0  0  0  0  0  0  0
    0.6658   -2.3046    0.0000 N   0  0  0  0  0  0  0  0  0  0  0  0
    0.0000   -3.4545    0.0000 O   0  0  0  0  0  0  0  0  0  0  0  0
    0.0000   -1.1500    0.0000 O   0  0  0  0  0  0  0  0  0  0  0  0
  1  2  1  0  0  0  0 
  2  3  2  0  0  0  0 
  2  4  1  0  0  0  0 
  3  5  1  0  0  0  0 
  6  4  2  0  0  0  0 
  4  7  1  0  0  0  0 
  5  8  2  0  0  0  0 
  8  6  1  0  0  0  0 
  6  9  1  0  0  0  0 
  9 10  1  0  0  0  0 
  9 11  2  0  0  0  0 
M  CHG  1   9   1
M  CHG  1  10  -1
M  END
> <Name>
1,2-DIMETHYL-3-NITROBENZENE

> <Source>
DSSTox2DMolFile

> <Tox>
-0.445

> <CAS>
83-41-0

$$$$

  CDK

 24 26  0  0  0  0  0  0  0  0999 V2000
    3.9936   -4.6073    0.0000 O   0  0  0  0  0  0  0  0  0  0  0  0
    4.6505   -5.7656    0.0000 C   0  0  0  0  0  0  0  0  0  0  0  0
    3.9936   -6.9153    0.0000 O   0  0  0  0  0  0  0  0  0  0  0  0
    5.9817   -5.7656    0.0000 C   0  0  0  0  0  0  0  0  0  0  0  0
    2.6624   -6.9153    0.0000 C   0  0  0  0  0  0  0  0  0  0  0  0
    6.6473   -4.6073    0.0000 C   0  0  0  0  0  0  0  0  0  0  0  0
    6.6473   -6.9153    0.0000 C   0  0  0  0  0  0  0  0  0  0  0  0
    1.9968   -8.0649    0.0000 C   0  0  0  0  0  0  0  0  0  0  0  0
    1.9968   -5.7656    0.0000 C   0  0  0  0  0  0  0  0  0  0  0  0
    7.9785   -4.6073    0.0000 C   0  0  0  0  0  0  0  0  0  0  0  0
    5.9817   -3.4576    0.0000 C   0  0  0  0  0  0  0  0  0  0  0  0
    7.9785   -6.9153    0.0000 C   0  0  0  0  0  0  0  0  0  0  0  0
    0.6656   -8.0649    0.0000 C   0  0  0  0  0  0  0  0  0  0  0  0
    0.6656   -5.7656    0.0000 C   0  0  0  0  0  0  0  0  0  0  0  0
    8.6441   -5.7656    0.0000 C   0  0  0  0  0  0  0  0  0  0  0  0
    6.6473   -2.3080    0.0000 O   0  0  0  0  0  0  0  0  0  0  0  0
    4.6505   -3.4576    0.0000 O   0  0  0  0  0  0  0  0  0  0  0  0
    0.0000   -6.9153    0.0000 C   0  0  0  0  0  0  0  0  0  0  0  0
    3.9936   -2.3080    0.0000 C   0  0  0  0  0  0  0  0  0  0  0  0
    2.6624   -2.3080    0.0000 C   0  0  0  0  0  0  0  0  0  0  0  0
    4.6505   -1.1583    0.0000 C   0  0  0  0  0  0  0  0  0  0  0  0
    1.9968   -1.1583    0.0000 C   0  0  0  0  0  0  0  0  0  0  0  0
    3.9936   -0.0000    0.0000 C   0  0  0  0  0  0  0  0  0  0  0  0
    2.6624   -0.0000    0.0000 C   0  0  0  0  0  0  0  0  0  0  0  0
  1  2  2  0  0  0  0 
  2  3  1  0  0  0  0 
  2  4  1  0  0  0  0 
  3  5  1  0  0  0  0 
  4  6  2  0  0  0  0 
  4  7  1  0  0  0  0 
  5  8  1  0  0  0  0 
  5  9  1  0  0  0  0 
  6 10  1  0  0  0  0 
  6 11  1  0  0  0  0 
 12  7  2  0  0  0  0 
  8 13  1  0  0  0  0 
 14  9  1  0  0  0  0 
 10 15  2  0  0  0  0 
 11 16  2  0  0  0  0 
 11 17  1  0  0  0  0 
 15 12  1  0  0  0  0 
 13 18  1  0  0  0  0 
 18 14  1  0  0  0  0 
 17 19  1  0  0  0  0 
 19 20  1  0  0  0  0 
 19 21  1  0  0  0  0 
 20 22  1  0  0  0  0 
 23 21  1  0  0  0  0 
 22 24  1  0  0  0  0 
 24 23  1  0  0  0  0 
M  END
> <Name>
DICYCLOHEXYL PHTHALATE

> <Source>
DSSTox2DMolFile

> <Tox>
-6.061

> <CAS>
84-61-7

$$$$

  CDK

 22 23  0  0  0  0  0  0  0  0999 V2000
    0.6656   -0.0000    0.0000 C   0  0  0  0  0  0  0  0  0  0  0  0
    1.9969   -0.0000    0.0000 C   0  0  0  0  0  0  0  0  0  0  0  0
    2.6625   -1.1497    0.0000 C   0  0  0  0  0  0  0  0  0  0  0  0
    3.9938   -1.1497    0.0000 C   0  0  0  0  0  0  0  0  0  0  0  0
    4.6508   -2.2994    0.0000 O   0  0  0  0  0  0  0  0  0  0  0  0
    5.9820   -2.2994    0.0000 C   0  0  0  0  0  0  0  0  0  0  0  0
    6.6477   -1.1497    0.0000 O   0  0  0  0  0  0  0  0  0  0  0  0
    6.6477   -3.4492    0.0000 C   0  0  0  0  0  0  0  0  0  0  0  0
    7.9789   -3.4492    0.0000 C   0  0  0  0  0  0  0  0  0  0  0  0
    5.9820   -4.6075    0.0000 C   0  0  0  0  0  0  0  0  0  0  0  0
    8.6445   -4.6075    0.0000 C   0  0  0  0  0  0  0  0  0  0  0  0
    6.6477   -5.7573    0.0000 C   0  0  0  0  0  0  0  0  0  0  0  0
    4.6508   -4.6075    0.0000 C   0  0  0  0  0  0  0  0  0  0  0  0
    7.9789   -5.7573    0.0000 C   0  0  0  0  0  0  0  0  0  0  0  0
    3.9938   -3.4492    0.0000 O   0  0  0  0  0  0  0  0  0  0  0  0
    3.9938   -5.7573    0.0000 O   0  0  0  0  0  0  0  0  0  0  0  0
    2.6625   -5.7573    0.0000 C   0  0  0  0  0  0  0  0  0  0  0  0
    1.9969   -6.9070    0.0000 C   0  0  0  0  0  0  0  0  0  0  0  0
    1.9969   -4.6075    0.0000 C   0  0  0  0  0  0  0  0  0  0  0  0
    0.6656   -6.9070    0.0000 C   0  0  0  0  0  0  0  0  0  0  0  0
    0.6656   -4.6075    0.0000 C   0  0  0  0  0  0  0  0  0  0  0  0
    0.0000   -5.7573    0.0000 C   0  0  0  0  0  0  0  0  0  0  0  0
  1  2  1  0  0  0  0 
  2  3  1  0  0  0  0 
  3  4  1  0  0  0  0 
  4  5  1  0  0  0  0 
  5  6  1  0  0  0  0 
  6  7  2  0  0  0  0 
  6  8  1  0  0  0  0 
  8  9  2  0  0  0  0 
  8 10  1  0  0  0  0 
  9 11  1  0  0  0  0 
 12 10  2  0  0  0  0 
 10 13  1  0  0  0  0 
 11 14  2  0  0  0  0 
 14 12  1  0  0  0  0 
 13 15  2  0  0  0  0 
 13 16  1  0  0  0  0 
 16 17  1  0  0  0  0 
 17 18  1  0  0  0  0 
 17 19  1  0  0  0  0 
 18 20  1  0  0  0  0 
 21 19  1  0  0  0  0 
 20 22  1  0  0  0  0 
 22 21  1  0  0  0  0 
M  END
> <Name>
BUTYLCYCLOHEXYL PHTHALATE

> <Source>
DSSTox2DMolFile

> <Tox>
-5.321

> <CAS>
84-64-0

$$$$

  CDK

 16 18  0  0  0  0  0  0  0  0999 V2000
    0.0000   -4.6544    0.0000 O   0  0  0  0  0  0  0  0  0  0  0  0
    1.1503   -3.9895    0.0000 C   0  0  0  0  0  0  0  0  0  0  0  0
    2.3006   -4.6544    0.0000 C   0  0  0  0  0  0  0  0  0  0  0  0
    1.1503   -2.6597    0.0000 C   0  0  0  0  0  0  0  0  0  0  0  0
    3.4576   -3.9895    0.0000 C   0  0  0  0  0  0  0  0  0  0  0  0
    2.3006   -5.9842    0.0000 C   0  0  0  0  0  0  0  0  0  0  0  0
    2.3006   -1.9947    0.0000 C   0  0  0  0  0  0  0  0  0  0  0  0
    0.0000   -1.9947    0.0000 C   0  0  0  0  0  0  0  0  0  0  0  0
    4.6079   -4.6544    0.0000 C   0  0  0  0  0  0  0  0  0  0  0  0
    3.4576   -2.6597    0.0000 C   0  0  0  0  0  0  0  0  0  0  0  0
    3.4576   -6.6491    0.0000 C   0  0  0  0  0  0  0  0  0  0  0  0
    2.3006   -0.6649    0.0000 C   0  0  0  0  0  0  0  0  0  0  0  0
    0.0000   -0.6649    0.0000 C   0  0  0  0  0  0  0  0  0  0  0  0
    4.6079   -5.9842    0.0000 C   0  0  0  0  0  0  0  0  0  0  0  0
    4.6079   -1.9947    0.0000 O   0  0  0  0  0  0  0  0  0  0  0  0
    1.1503   -0.0000    0.0000 C   0  0  0  0  0  0  0  0  0  0  0  0
  1  2  2  0  0  0  0 
  2  3  1  0  0  0  0 
  2  4  1  0  0  0  0 
  3  5  2  0  0  0  0 
  3  6  1  0  0  0  0 
  7  4  2  0  0  0  0 
  4  8  1  0  0  0  0 
  5  9  1  0  0  0  0 
  5 10  1  0  0  0  0 
 11  6  2  0  0  0  0 
 10  7  1  0  0  0  0 
  7 12  1  0  0  0  0 
  8 13  2  0  0  0  0 
  9 14  2  0  0  0  0 
 10 15  2  0  0  0  0 
 14 11  1  0  0  0  0 
 16 12  2  0  0  0  0 
 13 16  1  0  0  0  0 
M  END
> <Name>
ANTHRAQUINONE

> <Source>
DSSTox2DMolFile

> <Tox>
-6.936

> <CAS>
84-65-1

$$$$

  CDK

 16 16  0  0  0  0  0  0  0  0999 V2000
    6.6518   -5.7598    0.0000 C   0  0  0  0  0  0  0  0  0  0  0  0
    5.9880   -4.6120    0.0000 C   0  0  0  0  0  0  0  0  0  0  0  0
    4.6604   -4.6120    0.0000 O   0  0  0  0  0  0  0  0  0  0  0  0
    3.9897   -5.7598    0.0000 C   0  0  0  0  0  0  0  0  0  0  0  0
    4.6604   -6.9146    0.0000 O   0  0  0  0  0  0  0  0  0  0  0  0
    2.6621   -5.7598    0.0000 C   0  0  0  0  0  0  0  0  0  0  0  0
    1.9983   -6.9146    0.0000 C   0  0  0  0  0  0  0  0  0  0  0  0
    1.9983   -4.6120    0.0000 C   0  0  0  0  0  0  0  0  0  0  0  0
    0.6638   -6.9146    0.0000 C   0  0  0  0  0  0  0  0  0  0  0  0
    0.6638   -4.6120    0.0000 C   0  0  0  0  0  0  0  0  0  0  0  0
    2.6621   -3.4573    0.0000 C   0  0  0  0  0  0  0  0  0  0  0  0
    0.0000   -5.7598    0.0000 C   0  0  0  0  0  0  0  0  0  0  0  0
    3.9897   -3.4573    0.0000 O   0  0  0  0  0  0  0  0  0  0  0  0
    1.9983   -2.3025    0.0000 O   0  0  0  0  0  0  0  0  0  0  0  0
    2.6621   -1.1547    0.0000 C   0  0  0  0  0  0  0  0  0  0  0  0
    1.9983   -0.0000    0.0000 C   0  0  0  0  0  0  0  0  0  0  0  0
  1  2  1  0  0  0  0 
  2  3  1  0  0  0  0 
  3  4  1  0  0  0  0 
  4  5  2  0  0  0  0 
  4  6  1  0  0  0  0 
  6  7  2  0  0  0  0 
  6  8  1  0  0  0  0 
  7  9  1  0  0  0  0 
 10  8  2  0  0  0  0 
  8 11  1  0  0  0  0 
  9 12  2  0  0  0  0 
 12 10  1  0  0  0  0 
 11 13  2  0  0  0  0 
 11 14  1  0  0  0  0 
 14 15  1  0  0  0  0 
 15 16  1  0  0  0  0 
M  END
> <Name>
DIETHYL PHTHALATE

> <Source>
DSSTox2DMolFile

> <Tox>
-2.678

> <CAS>
84-66-2

$$$$

  CDK

 20 20  0  0  0  0  0  0  0  0999 V2000
    8.6524   -6.9219    0.0000 C   0  0  0  0  0  0  0  0  0  0  0  0
    7.9862   -8.0727    0.0000 C   0  0  0  0  0  0  0  0  0  0  0  0
    7.9862   -5.7712    0.0000 C   0  0  0  0  0  0  0  0  0  0  0  0
    6.6537   -8.0727    0.0000 C   0  0  0  0  0  0  0  0  0  0  0  0
    6.6537   -5.7712    0.0000 C   0  0  0  0  0  0  0  0  0  0  0  0
    5.9875   -6.9219    0.0000 C   0  0  0  0  0  0  0  0  0  0  0  0
    5.9875   -4.6117    0.0000 C   0  0  0  0  0  0  0  0  0  0  0  0
    4.6550   -6.9219    0.0000 C   0  0  0  0  0  0  0  0  0  0  0  0
    6.6537   -3.4610    0.0000 O   0  0  0  0  0  0  0  0  0  0  0  0
    4.6550   -4.6117    0.0000 O   0  0  0  0  0  0  0  0  0  0  0  0
    3.9974   -5.7712    0.0000 O   0  0  0  0  0  0  0  0  0  0  0  0
    3.9974   -8.0727    0.0000 O   0  0  0  0  0  0  0  0  0  0  0  0
    3.9974   -3.4610    0.0000 C   0  0  0  0  0  0  0  0  0  0  0  0
    2.6649   -8.0727    0.0000 C   0  0  0  0  0  0  0  0  0  0  0  0
    4.6550   -2.3102    0.0000 C   0  0  0  0  0  0  0  0  0  0  0  0
    1.9987   -6.9219    0.0000 C   0  0  0  0  0  0  0  0  0  0  0  0
    3.9974   -1.1594    0.0000 C   0  0  0  0  0  0  0  0  0  0  0  0
    0.6662   -6.9219    0.0000 C   0  0  0  0  0  0  0  0  0  0  0  0
    4.6550   -0.0000    0.0000 C   0  0  0  0  0  0  0  0  0  0  0  0
    0.0000   -5.7712    0.0000 C   0  0  0  0  0  0  0  0  0  0  0  0
  1  2  2  0  0  0  0 
  1  3  1  0  0  0  0 
  2  4  1  0  0  0  0 
  3  5  2  0  0  0  0 
  4  6  2  0  0  0  0 
  6  5  1  0  0  0  0 
  5  7  1  0  0  0  0 
  6  8  1  0  0  0  0 
  7  9  2  0  0  0  0 
  7 10  1  0  0  0  0 
  8 11  2  0  0  0  0 
  8 12  1  0  0  0  0 
 10 13  1  0  0  0  0 
 12 14  1  0  0  0  0 
 13 15  1  0  0  0  0 
 14 16  1  0  0  0  0 
 15 17  1  0  0  0  0 
 16 18  1  0  0  0  0 
 17 19  1  0  0  0  0 
 18 20  1  0  0  0  0 
M  END
> <Name>
DIBUTYL PHTHALATE

> <Source>
DSSTox2DMolFile

> <Tox>
-4.697

> <CAS>
84-74-2

$$$$

  CDK

 24 24  0  0  0  0  0  0  0  0999 V2000
    5.9936   -8.0589    0.0000 O   0  0  0  0  0  0  0  0  0  0  0  0
    6.6536   -9.2193    0.0000 C   0  0  0  0  0  0  0  0  0  0  0  0
    5.9936  -10.3690    0.0000 O   0  0  0  0  0  0  0  0  0  0  0  0
    7.9843   -9.2193    0.0000 C   0  0  0  0  0  0  0  0  0  0  0  0
    4.6629  -10.3690    0.0000 C   0  0  0  0  0  0  0  0  0  0  0  0
    8.6550   -8.0589    0.0000 C   0  0  0  0  0  0  0  0  0  0  0  0
    8.6550  -10.3690    0.0000 C   0  0  0  0  0  0  0  0  0  0  0  0
    3.9922   -9.2193    0.0000 C   0  0  0  0  0  0  0  0  0  0  0  0
    9.9751   -8.0589    0.0000 C   0  0  0  0  0  0  0  0  0  0  0  0
    7.9843   -6.9091    0.0000 C   0  0  0  0  0  0  0  0  0  0  0  0
    9.9751  -10.3690    0.0000 C   0  0  0  0  0  0  0  0  0  0  0  0
    2.6614   -9.2193    0.0000 C   0  0  0  0  0  0  0  0  0  0  0  0
   10.6458   -9.2193    0.0000 C   0  0  0  0  0  0  0  0  0  0  0  0
    8.6550   -5.7594    0.0000 O   0  0  0  0  0  0  0  0  0  0  0  0
    6.6536   -6.9091    0.0000 O   0  0  0  0  0  0  0  0  0  0  0  0
    1.9908   -8.0589    0.0000 C   0  0  0  0  0  0  0  0  0  0  0  0
    5.9936   -5.7594    0.0000 C   0  0  0  0  0  0  0  0  0  0  0  0
    0.6600   -8.0589    0.0000 C   0  0  0  0  0  0  0  0  0  0  0  0
    6.6536   -4.6096    0.0000 C   0  0  0  0  0  0  0  0  0  0  0  0
    0.0000   -6.9091    0.0000 C   0  0  0  0  0  0  0  0  0  0  0  0
    5.9936   -3.4492    0.0000 C   0  0  0  0  0  0  0  0  0  0  0  0
    6.6536   -2.2995    0.0000 C   0  0  0  0  0  0  0  0  0  0  0  0
    5.9936   -1.1497    0.0000 C   0  0  0  0  0  0  0  0  0  0  0  0
    6.6536   -0.0000    0.0000 C   0  0  0  0  0  0  0  0  0  0  0  0
  1  2  2  0  0  0  0 
  2  3  1  0  0  0  0 
  2  4  1  0  0  0  0 
  3  5  1  0  0  0  0 
  4  6  2  0  0  0  0 
  4  7  1  0  0  0  0 
  5  8  1  0  0  0  0 
  6  9  1  0  0  0  0 
  6 10  1  0  0  0  0 
 11  7  2  0  0  0  0 
  8 12  1  0  0  0  0 
  9 13  2  0  0  0  0 
 10 14  2  0  0  0  0 
 10 15  1  0  0  0  0 
 13 11  1  0  0  0  0 
 12 16  1  0  0  0  0 
 15 17  1  0  0  0  0 
 16 18  1  0  0  0  0 
 17 19  1  0  0  0  0 
 18 20  1  0  0  0  0 
 19 21  1  0  0  0  0 
 21 22  1  0  0  0  0 
 22 23  1  0  0  0  0 
 23 24  1  0  0  0  0 
M  END
> <Name>
DIHEXYL PHTHALATE

> <Source>
DSSTox2DMolFile

> <Tox>
-4.854

> <CAS>
84-75-3

$$$$

  CDK

 14 16  0  0  0  0  0  0  0  0999 V2000
    3.9901   -2.3076    0.0000 C   0  0  0  0  0  0  0  0  0  0  0  0
    4.6551   -3.4580    0.0000 C   0  0  0  0  0  0  0  0  0  0  0  0
    4.6551   -1.1571    0.0000 C   0  0  0  0  0  0  0  0  0  0  0  0
    2.6600   -2.3076    0.0000 C   0  0  0  0  0  0  0  0  0  0  0  0
    5.9851   -3.4580    0.0000 C   0  0  0  0  0  0  0  0  0  0  0  0
    5.9851   -1.1571    0.0000 C   0  0  0  0  0  0  0  0  0  0  0  0
    3.9901   -0.0000    0.0000 C   0  0  0  0  0  0  0  0  0  0  0  0
    1.9950   -1.1571    0.0000 C   0  0  0  0  0  0  0  0  0  0  0  0
    1.9950   -3.4580    0.0000 C   0  0  0  0  0  0  0  0  0  0  0  0
    6.6501   -2.3076    0.0000 C   0  0  0  0  0  0  0  0  0  0  0  0
    2.6600   -0.0000    0.0000 C   0  0  0  0  0  0  0  0  0  0  0  0
    0.6650   -1.1571    0.0000 N   0  0  0  0  0  0  0  0  0  0  0  0
    0.6650   -3.4580    0.0000 C   0  0  0  0  0  0  0  0  0  0  0  0
    0.0000   -2.3076    0.0000 C   0  0  0  0  0  0  0  0  0  0  0  0
  1  2  2  0  0  0  0 
  1  3  1  0  0  0  0 
  1  4  1  0  0  0  0 
  2  5  1  0  0  0  0 
  6  3  2  0  0  0  0 
  3  7  1  0  0  0  0 
  8  4  2  0  0  0  0 
  4  9  1  0  0  0  0 
  5 10  2  0  0  0  0 
 10  6  1  0  0  0  0 
  7 11  2  0  0  0  0 
 11  8  1  0  0  0  0 
  8 12  1  0  0  0  0 
  9 13  2  0  0  0  0 
 14 12  2  0  0  0  0 
 13 14  1  0  0  0  0 
M  END
> <Name>
BENZO(F)QUINOLINE

> <Source>
DSSTox2DMolFile

> <Tox>
-4.252

> <CAS>
85-02-9

$$$$

  CDK

 23 24  0  0  0  0  0  0  0  0999 V2000
    5.3142   -2.2980    0.0000 C   0  0  0  0  0  0  0  0  0  0  0  0
    3.9856   -2.2980    0.0000 C   0  0  0  0  0  0  0  0  0  0  0  0
    5.9844   -1.1490    0.0000 C   0  0  0  0  0  0  0  0  0  0  0  0
    5.9844   -3.4470    0.0000 C   0  0  0  0  0  0  0  0  0  0  0  0
    3.3273   -1.1490    0.0000 C   0  0  0  0  0  0  0  0  0  0  0  0
    3.3273   -3.4470    0.0000 C   0  0  0  0  0  0  0  0  0  0  0  0
    5.3142   -0.0000    0.0000 C   0  0  0  0  0  0  0  0  0  0  0  0
    7.3130   -3.4470    0.0000 O   0  0  0  0  0  0  0  0  0  0  0  0
    5.3142   -4.6080    0.0000 O   0  0  0  0  0  0  0  0  0  0  0  0
    3.9856   -0.0000    0.0000 C   0  0  0  0  0  0  0  0  0  0  0  0
    3.9856   -4.6080    0.0000 O   0  0  0  0  0  0  0  0  0  0  0  0
    1.9988   -3.4470    0.0000 O   0  0  0  0  0  0  0  0  0  0  0  0
    7.9832   -4.6080    0.0000 C   0  0  0  0  0  0  0  0  0  0  0  0
    3.3273   -5.7570    0.0000 C   0  0  0  0  0  0  0  0  0  0  0  0
    9.3118   -4.6080    0.0000 C   0  0  0  0  0  0  0  0  0  0  0  0
    1.9988   -5.7570    0.0000 C   0  0  0  0  0  0  0  0  0  0  0  0
    9.9701   -3.4470    0.0000 C   0  0  0  0  0  0  0  0  0  0  0  0
    9.9701   -5.7570    0.0000 C   0  0  0  0  0  0  0  0  0  0  0  0
    1.3285   -6.9060    0.0000 C   0  0  0  0  0  0  0  0  0  0  0  0
   11.2986   -3.4470    0.0000 C   0  0  0  0  0  0  0  0  0  0  0  0
   11.2986   -5.7570    0.0000 C   0  0  0  0  0  0  0  0  0  0  0  0
    0.0000   -6.9060    0.0000 C   0  0  0  0  0  0  0  0  0  0  0  0
   11.9689   -4.6080    0.0000 C   0  0  0  0  0  0  0  0  0  0  0  0
  1  2  2  0  0  0  0 
  1  3  1  0  0  0  0 
  1  4  1  0  0  0  0 
  2  5  1  0  0  0  0 
  2  6  1  0  0  0  0 
  7  3  2  0  0  0  0 
  4  8  1  0  0  0  0 
  4  9  2  0  0  0  0 
  5 10  2  0  0  0  0 
  6 11  1  0  0  0  0 
  6 12  2  0  0  0  0 
 10  7  1  0  0  0  0 
  8 13  1  0  0  0  0 
 11 14  1  0  0  0  0 
 13 15  1  0  0  0  0 
 14 16  1  0  0  0  0 
 15 17  2  0  0  0  0 
 15 18  1  0  0  0  0 
 16 19  1  0  0  0  0 
 17 20  1  0  0  0  0 
 21 18  2  0  0  0  0 
 19 22  1  0  0  0  0 
 20 23  2  0  0  0  0 
 23 21  1  0  0  0  0 
M  END
> <Name>
BUTYL BENZYL PHTHALATE

> <Source>
DSSTox2DMolFile

> <Tox>
-5.084

> <CAS>
85-68-7

$$$$

  CDK

 13 14  0  0  0  0  0  0  0  0999 V2000
    2.5899    2.9385    0.0000 C   0  0  0  0  0  0  0  0  0  0  0  0
    1.7432    3.4863    0.0000 O   0  0  0  0  0  0  0  0  0  0  0  0
    3.4863    3.4365    0.0000 O   0  0  0  0  0  0  0  0  0  0  0  0
    2.5899    1.9922    0.0000 C   0  0  0  0  0  0  0  0  0  0  0  0
    1.7432    1.4941    0.0000 C   0  0  0  0  0  0  0  0  0  0  0  0
    3.4863    1.4941    0.0000 C   0  0  0  0  0  0  0  0  0  0  0  0
    1.7432    0.4980    0.0000 C   0  0  0  0  0  0  0  0  0  0  0  0
    0.8965    1.9922    0.0000 C   0  0  0  0  0  0  0  0  0  0  0  0
    3.4863    0.4980    0.0000 C   0  0  0  0  0  0  0  0  0  0  0  0
    2.5899    0.0000    0.0000 C   0  0  0  0  0  0  0  0  0  0  0  0
    0.8965    0.0000    0.0000 C   0  0  0  0  0  0  0  0  0  0  0  0
    0.0000    1.4941    0.0000 C   0  0  0  0  0  0  0  0  0  0  0  0
    0.0000    0.4980    0.0000 C   0  0  0  0  0  0  0  0  0  0  0  0
  1  2  1  0  0  0  0 
  1  3  2  0  0  0  0 
  1  4  1  0  0  0  0 
  5  4  2  0  0  0  0 
  4  6  1  0  0  0  0 
  5  7  1  0  0  0  0 
  8  5  1  0  0  0  0 
  6  9  2  0  0  0  0 
 10  7  2  0  0  0  0 
  7 11  1  0  0  0  0 
 12  8  2  0  0  0  0 
  9 10  1  0  0  0  0 
 11 13  2  0  0  0  0 
 13 12  1  0  0  0  0 
M  END
> <Name>
1-NAPTHOIC ACID

> <Source>
NIST2DMolFile

> <Tox>
-5.054

> <CAS>
86-55-5

$$$$

  CDK

 13 14  0  0  0  0  0  0  0  0999 V2000
    1.1516   -3.9902    0.0000 O   0  0  0  0  0  0  0  0  0  0  0  0
    1.1516   -2.6601    0.0000 N   0  0  0  0  0  0  0  0  0  0  0  0
    2.3031   -1.9922    0.0000 C   0  0  0  0  0  0  0  0  0  0  0  0
    0.0000   -1.9922    0.0000 O   0  0  0  0  0  0  0  0  0  0  0  0
    3.4547   -2.6601    0.0000 C   0  0  0  0  0  0  0  0  0  0  0  0
    2.3031   -0.6622    0.0000 C   0  0  0  0  0  0  0  0  0  0  0  0
    4.6063   -1.9922    0.0000 C   0  0  0  0  0  0  0  0  0  0  0  0
    3.4547   -3.9902    0.0000 C   0  0  0  0  0  0  0  0  0  0  0  0
    3.4547   -0.0000    0.0000 C   0  0  0  0  0  0  0  0  0  0  0  0
    4.6063   -0.6622    0.0000 C   0  0  0  0  0  0  0  0  0  0  0  0
    5.7578   -2.6601    0.0000 C   0  0  0  0  0  0  0  0  0  0  0  0
    4.6063   -4.6523    0.0000 C   0  0  0  0  0  0  0  0  0  0  0  0
    5.7578   -3.9902    0.0000 C   0  0  0  0  0  0  0  0  0  0  0  0
  1  2  2  0  0  0  0 
  2  3  1  0  0  0  0 
  2  4  1  0  0  0  0 
  3  5  2  0  0  0  0 
  3  6  1  0  0  0  0 
  5  7  1  0  0  0  0 
  5  8  1  0  0  0  0 
  9  6  2  0  0  0  0 
  7 10  2  0  0  0  0 
  7 11  1  0  0  0  0 
 12  8  2  0  0  0  0 
 10  9  1  0  0  0  0 
 11 13  2  0  0  0  0 
 13 12  1  0  0  0  0 
M  CHG  1   2   1
M  CHG  1   4  -1
M  END
> <Name>
1-NITRONAPHTHALENE

> <Source>
DSSTox2DMolFile

> <Tox>
-3.319

> <CAS>
86-57-7

$$$$

  CDK

 13 15  0  0  0  0  0  0  0  0999 V2000
    2.1965   -1.9006    0.0000 C   0  0  0  0  0  0  0  0  0  0  0  0
    4.3799   -1.9006    0.0000 C   0  0  0  0  0  0  0  0  0  0  0  0
    2.1965   -0.6248    0.0000 C   0  0  0  0  0  0  0  0  0  0  0  0
    1.1048   -2.5451    0.0000 C   0  0  0  0  0  0  0  0  0  0  0  0
    4.3799   -0.6248    0.0000 C   0  0  0  0  0  0  0  0  0  0  0  0
    5.4716   -2.5451    0.0000 C   0  0  0  0  0  0  0  0  0  0  0  0
    3.2882   -0.0000    0.0000 C   0  0  0  0  0  0  0  0  0  0  0  0
    1.1048   -0.0000    0.0000 C   0  0  0  0  0  0  0  0  0  0  0  0
    0.0000   -1.9006    0.0000 C   0  0  0  0  0  0  0  0  0  0  0  0
    5.4716   -0.0000    0.0000 C   0  0  0  0  0  0  0  0  0  0  0  0
    6.5764   -1.9006    0.0000 C   0  0  0  0  0  0  0  0  0  0  0  0
    0.0000   -0.6248    0.0000 C   0  0  0  0  0  0  0  0  0  0  0  0
    6.5764   -0.6248    0.0000 C   0  0  0  0  0  0  0  0  0  0  0  0
  1  2  1  0  0  0  0 
  1  3  2  0  0  0  0 
  1  4  1  0  0  0  0 
  2  5  2  0  0  0  0 
  2  6  1  0  0  0  0 
  3  7  1  0  0  0  0 
  3  8  1  0  0  0  0 
  4  9  2  0  0  0  0 
  5 10  1  0  0  0  0 
  5  7  1  0  0  0  0 
  6 11  2  0  0  0  0 
  8 12  2  0  0  0  0 
  9 12  1  0  0  0  0 
 10 13  2  0  0  0  0 
 11 13  1  0  0  0  0 
M  END
> <Name>
9H-FLUORENE

> <Source>
DSSTox2DMolFile

> <Tox>
-3.222

> <CAS>
86-73-7

$$$$

  CDK

 13 15  0  0  0  0  0  0  0  0999 V2000
    3.7329   -2.1413    0.0000 C   0  0  0  0  0  0  0  0  0  0  0  0
    2.4289   -1.8664    0.0000 C   0  0  0  0  0  0  0  0  0  0  0  0
    4.3976   -0.9907    0.0000 C   0  0  0  0  0  0  0  0  0  0  0  0
    4.3976   -3.2918    0.0000 C   0  0  0  0  0  0  0  0  0  0  0  0
    2.2883   -0.5433    0.0000 C   0  0  0  0  0  0  0  0  0  0  0  0
    1.3551   -2.6462    0.0000 C   0  0  0  0  0  0  0  0  0  0  0  0
    3.5091   -0.0000    0.0000 N   0  0  0  0  0  0  0  0  0  0  0  0
    5.7271   -0.9907    0.0000 C   0  0  0  0  0  0  0  0  0  0  0  0
    5.7271   -3.2918    0.0000 C   0  0  0  0  0  0  0  0  0  0  0  0
    1.0738   -0.0000    0.0000 C   0  0  0  0  0  0  0  0  0  0  0  0
    0.1406   -2.1029    0.0000 C   0  0  0  0  0  0  0  0  0  0  0  0
    6.3919   -2.1413    0.0000 C   0  0  0  0  0  0  0  0  0  0  0  0
    0.0000   -0.7798    0.0000 C   0  0  0  0  0  0  0  0  0  0  0  0
  1  2  1  0  0  0  0 
  1  3  1  0  0  0  0 
  1  4  2  0  0  0  0 
  2  5  2  0  0  0  0 
  2  6  1  0  0  0  0 
  7  3  1  0  0  0  0 
  3  8  2  0  0  0  0 
  9  4  1  0  0  0  0 
  5 10  1  0  0  0  0 
  5  7  1  0  0  0  0 
 11  6  2  0  0  0  0 
  8 12  1  0  0  0  0 
 12  9  2  0  0  0  0 
 10 13  2  0  0  0  0 
 13 11  1  0  0  0  0 
M  END
> <Name>
CARBAZOLE

> <Source>
DSSTox2DMolFile

> <Tox>
-6.125

> <CAS>
86-74-8

$$$$

  CDK

 10 11  0  0  0  0  0  0  0  0999 V2000
    0.0000    2.3051    0.0000 C   0  0  0  0  0  0  0  0  0  0  0  0
    0.0000    1.3029    0.0000 C   0  0  0  0  0  0  0  0  0  0  0  0
    0.8519    2.8062    0.0000 C   0  0  0  0  0  0  0  0  0  0  0  0
    0.8519    0.8018    0.0000 C   0  0  0  0  0  0  0  0  0  0  0  0
    1.7038    2.3051    0.0000 C   0  0  0  0  0  0  0  0  0  0  0  0
    1.7038    1.3029    0.0000 C   0  0  0  0  0  0  0  0  0  0  0  0
    2.7060    2.6058    0.0000 C   0  0  0  0  0  0  0  0  0  0  0  0
    2.7060    1.0022    0.0000 C   0  0  0  0  0  0  0  0  0  0  0  0
    3.2572    1.8040    0.0000 O   0  0  0  0  0  0  0  0  0  0  0  0
    2.6559    0.0000    0.0000 O   0  0  0  0  0  0  0  0  0  0  0  0
  2  1  2  0  0  0  0 
  1  3  1  0  0  0  0 
  4  2  1  0  0  0  0 
  3  5  2  0  0  0  0 
  6  4  2  0  0  0  0 
  6  5  1  0  0  0  0 
  5  7  1  0  0  0  0 
  8  6  1  0  0  0  0 
  7  9  1  0  0  0  0 
  9  8  1  0  0  0  0 
  8 10  2  0  0  0  0 
M  END
> <Name>
PHTHALIDE

> <Source>
NIST2DMolFile

> <Tox>
-2.699

> <CAS>
87-41-2

$$$$

  CDK

  9  9  0  0  0  0  0  0  0  0999 V2000
    1.3315   -4.6073    0.0000 N   0  0  0  0  0  0  0  0  0  0  0  0
    1.9950   -3.4555    0.0000 C   0  0  0  0  0  0  0  0  0  0  0  0
    1.3315   -2.3037    0.0000 C   0  0  0  0  0  0  0  0  0  0  0  0
    3.3265   -3.4555    0.0000 C   0  0  0  0  0  0  0  0  0  0  0  0
    1.9950   -1.1518    0.0000 C   0  0  0  0  0  0  0  0  0  0  0  0
    0.0000   -2.3037    0.0000 C   0  0  0  0  0  0  0  0  0  0  0  0
    3.9899   -2.3037    0.0000 C   0  0  0  0  0  0  0  0  0  0  0  0
    3.3265   -1.1518    0.0000 C   0  0  0  0  0  0  0  0  0  0  0  0
    1.3315   -0.0000    0.0000 C   0  0  0  0  0  0  0  0  0  0  0  0
  1  2  1  0  0  0  0 
  2  3  2  0  0  0  0 
  2  4  1  0  0  0  0 
  3  5  1  0  0  0  0 
  3  6  1  0  0  0  0 
  7  4  2  0  0  0  0 
  5  8  2  0  0  0  0 
  5  9  1  0  0  0  0 
  8  7  1  0  0  0  0 
M  END
> <Name>
2,3-DIMETHYLANILINE

> <Source>
DSSTox2DMolFile

> <Tox>
-1.125

> <CAS>
87-59-2

$$$$

  CDK

  9  9  0  0  0  0  0  0  0  0999 V2000
    0.0000   -2.3037    0.0000 Cl  0  0  0  0  0  0  0  0  0  0  0  0
    1.3315   -2.3037    0.0000 C   0  0  0  0  0  0  0  0  0  0  0  0
    1.9950   -1.1518    0.0000 C   0  0  0  0  0  0  0  0  0  0  0  0
    1.9950   -3.4555    0.0000 C   0  0  0  0  0  0  0  0  0  0  0  0
    1.3315   -0.0000    0.0000 Cl  0  0  0  0  0  0  0  0  0  0  0  0
    3.3265   -1.1518    0.0000 C   0  0  0  0  0  0  0  0  0  0  0  0
    3.3265   -3.4555    0.0000 C   0  0  0  0  0  0  0  0  0  0  0  0
    1.3315   -4.6073    0.0000 Cl  0  0  0  0  0  0  0  0  0  0  0  0
    3.9899   -2.3037    0.0000 C   0  0  0  0  0  0  0  0  0  0  0  0
  1  2  1  0  0  0  0 
  2  3  2  0  0  0  0 
  2  4  1  0  0  0  0 
  3  5  1  0  0  0  0 
  3  6  1  0  0  0  0 
  7  4  2  0  0  0  0 
  4  8  1  0  0  0  0 
  6  9  2  0  0  0  0 
  9  7  1  0  0  0  0 
M  END
> <Name>
1,2,3-TRICHLOROBENZENE

> <Source>
DSSTox2DMolFile

> <Tox>
-0.678

> <CAS>
87-61-6

$$$$

  CDK

  9  9  0  0  0  0  0  0  0  0999 V2000
    0.0000   -2.3037    0.0000 N   0  0  0  0  0  0  0  0  0  0  0  0
    1.3315   -2.3037    0.0000 C   0  0  0  0  0  0  0  0  0  0  0  0
    1.9950   -1.1518    0.0000 C   0  0  0  0  0  0  0  0  0  0  0  0
    1.9950   -3.4555    0.0000 C   0  0  0  0  0  0  0  0  0  0  0  0
    3.3265   -1.1518    0.0000 C   0  0  0  0  0  0  0  0  0  0  0  0
    1.3315   -0.0000    0.0000 C   0  0  0  0  0  0  0  0  0  0  0  0
    3.3265   -3.4555    0.0000 C   0  0  0  0  0  0  0  0  0  0  0  0
    1.3315   -4.6073    0.0000 C   0  0  0  0  0  0  0  0  0  0  0  0
    3.9899   -2.3037    0.0000 C   0  0  0  0  0  0  0  0  0  0  0  0
  1  2  1  0  0  0  0 
  2  3  2  0  0  0  0 
  2  4  1  0  0  0  0 
  3  5  1  0  0  0  0 
  3  6  1  0  0  0  0 
  7  4  2  0  0  0  0 
  4  8  1  0  0  0  0 
  5  9  2  0  0  0  0 
  9  7  1  0  0  0  0 
M  END
> <Name>
2,6-DIMETHYLANILINE

> <Source>
DSSTox2DMolFile

> <Tox>
-0.886

> <CAS>
87-62-7

$$$$

  CDK

  9  9  0  0  0  0  0  0  0  0999 V2000
    0.0000   -2.3037    0.0000 O   0  0  0  0  0  0  0  0  0  0  0  0
    1.3315   -2.3037    0.0000 C   0  0  0  0  0  0  0  0  0  0  0  0
    1.9950   -1.1518    0.0000 C   0  0  0  0  0  0  0  0  0  0  0  0
    1.9950   -3.4555    0.0000 C   0  0  0  0  0  0  0  0  0  0  0  0
    1.3315   -0.0000    0.0000 Cl  0  0  0  0  0  0  0  0  0  0  0  0
    3.3265   -1.1518    0.0000 C   0  0  0  0  0  0  0  0  0  0  0  0
    3.3265   -3.4555    0.0000 C   0  0  0  0  0  0  0  0  0  0  0  0
    1.3315   -4.6073    0.0000 Cl  0  0  0  0  0  0  0  0  0  0  0  0
    3.9899   -2.3037    0.0000 C   0  0  0  0  0  0  0  0  0  0  0  0
  1  2  1  0  0  0  0 
  2  3  2  0  0  0  0 
  2  4  1  0  0  0  0 
  3  5  1  0  0  0  0 
  3  6  1  0  0  0  0 
  7  4  2  0  0  0  0 
  4  8  1  0  0  0  0 
  6  9  2  0  0  0  0 
  9  7  1  0  0  0  0 
M  END
> <Name>
2,6-DICHLOROPHENOL

> <Source>
DSSTox2DMolFile

> <Tox>
-1.481

> <CAS>
87-65-0

$$$$

  CDK

  9  9  0  0  0  0  0  0  0  0999 V2000
    0.0000   -2.3037    0.0000 O   0  0  0  0  0  0  0  0  0  0  0  0
    1.3315   -2.3037    0.0000 C   0  0  0  0  0  0  0  0  0  0  0  0
    1.9950   -1.1518    0.0000 C   0  0  0  0  0  0  0  0  0  0  0  0
    1.9950   -3.4555    0.0000 C   0  0  0  0  0  0  0  0  0  0  0  0
    1.3315   -0.0000    0.0000 O   0  0  0  0  0  0  0  0  0  0  0  0
    3.3265   -1.1518    0.0000 C   0  0  0  0  0  0  0  0  0  0  0  0
    3.3265   -3.4555    0.0000 C   0  0  0  0  0  0  0  0  0  0  0  0
    1.3315   -4.6073    0.0000 O   0  0  0  0  0  0  0  0  0  0  0  0
    3.9899   -2.3037    0.0000 C   0  0  0  0  0  0  0  0  0  0  0  0
  1  2  1  0  0  0  0 
  2  3  2  0  0  0  0 
  2  4  1  0  0  0  0 
  3  5  1  0  0  0  0 
  3  6  1  0  0  0  0 
  7  4  2  0  0  0  0 
  4  8  1  0  0  0  0 
  6  9  2  0  0  0  0 
  9  7  1  0  0  0  0 
M  END
> <Name>
1,2,3-TRIHYDROXYBENZENE

> <Source>
DSSTox2DMolFile

> <Tox>
-3.320

> <CAS>
87-66-1

$$$$

  CDK

 12 12  0  0  0  0  0  0  0  0999 V2000
    2.1722    3.1587    3.5298 C   0  0  0  0  0  0  0  0  0  0  0  0
    0.8019    3.4960    4.0080 C   0  0  0  0  0  0  0  0  0  0  0  0
    2.3450    2.2528    2.4746 C   0  0  0  0  0  0  0  0  0  0  0  0
    3.2927    3.7393    4.1498 C   0  0  0  0  0  0  0  0  0  0  0  0
    1.1906    1.6091    1.7854 C   0  0  0  0  0  0  0  0  0  0  0  0
    3.6411    1.9284    2.0312 C   0  0  0  0  0  0  0  0  0  0  0  0
    3.0598    4.6930    5.2702 C   0  0  0  0  0  0  0  0  0  0  0  0
    4.5820    3.4108    3.7145 C   0  0  0  0  0  0  0  0  0  0  0  0
    3.7861    0.9787    0.8924 C   0  0  0  0  0  0  0  0  0  0  0  0
    4.7553    2.4988    2.6565 C   0  0  0  0  0  0  0  0  0  0  0  0
    5.7934    4.0047    4.3466 C   0  0  0  0  0  0  0  0  0  0  0  0
    6.1411    2.1746    2.2154 C   0  0  0  0  0  0  0  0  0  0  0  0
  1  2  1  0  0  0  0 
  3  1  2  0  0  0  0 
  1  4  1  0  0  0  0 
  3  5  1  0  0  0  0 
  6  3  1  0  0  0  0 
  4  7  1  0  0  0  0 
  4  8  2  0  0  0  0 
  6  9  1  0  0  0  0 
 10  6  2  0  0  0  0 
  8 10  1  0  0  0  0 
  8 11  1  0  0  0  0 
 10 12  1  0  0  0  0 
M  END
> <Name>
HEXAMETHYLBENZENE

> <Source>
NIST3DMolFile

> <Tox>
-3.066

> <CAS>
87-85-4

$$$$

  CDK

 12 12  0  0  0  0  0  0  0  0999 V2000
    0.0000   -2.3022    0.0000 O   0  0  0  0  0  0  0  0  0  0  0  0
    1.3292   -2.3022    0.0000 C   0  0  0  0  0  0  0  0  0  0  0  0
    2.0045   -1.1485    0.0000 C   0  0  0  0  0  0  0  0  0  0  0  0
    2.0045   -3.4560    0.0000 C   0  0  0  0  0  0  0  0  0  0  0  0
    3.3337   -1.1485    0.0000 C   0  0  0  0  0  0  0  0  0  0  0  0
    1.3292   -0.0000    0.0000 Cl  0  0  0  0  0  0  0  0  0  0  0  0
    3.3337   -3.4560    0.0000 C   0  0  0  0  0  0  0  0  0  0  0  0
    1.3292   -4.6098    0.0000 Cl  0  0  0  0  0  0  0  0  0  0  0  0
    3.9877   -2.3022    0.0000 C   0  0  0  0  0  0  0  0  0  0  0  0
    3.9877   -0.0000    0.0000 Cl  0  0  0  0  0  0  0  0  0  0  0  0
    3.9877   -4.6098    0.0000 Cl  0  0  0  0  0  0  0  0  0  0  0  0
    5.3169   -2.3022    0.0000 Cl  0  0  0  0  0  0  0  0  0  0  0  0
  1  2  1  0  0  0  0 
  2  3  2  0  0  0  0 
  2  4  1  0  0  0  0 
  3  5  1  0  0  0  0 
  3  6  1  0  0  0  0 
  7  4  2  0  0  0  0 
  4  8  1  0  0  0  0 
  5  9  2  0  0  0  0 
  5 10  1  0  0  0  0 
  9  7  1  0  0  0  0 
  7 11  1  0  0  0  0 
  9 12  1  0  0  0  0 
M  END
> <Name>
PENTACHLOROPHENOL

> <Source>
DSSTox2DMolFile

> <Tox>
-3.959

> <CAS>
87-86-5

$$$$

  CDK

 10 10  0  0  0  0  0  0  0  0999 V2000
    5.3182   -2.3028    0.0000 O   0  0  0  0  0  0  0  0  0  0  0  0
    3.9887   -2.3028    0.0000 C   0  0  0  0  0  0  0  0  0  0  0  0
    3.3239   -3.4568    0.0000 C   0  0  0  0  0  0  0  0  0  0  0  0
    3.3239   -1.1487    0.0000 C   0  0  0  0  0  0  0  0  0  0  0  0
    1.9943   -3.4568    0.0000 C   0  0  0  0  0  0  0  0  0  0  0  0
    3.9887   -4.6056    0.0000 Cl  0  0  0  0  0  0  0  0  0  0  0  0
    1.9943   -1.1487    0.0000 C   0  0  0  0  0  0  0  0  0  0  0  0
    3.9887   -0.0000    0.0000 Cl  0  0  0  0  0  0  0  0  0  0  0  0
    1.3296   -2.3028    0.0000 C   0  0  0  0  0  0  0  0  0  0  0  0
    0.0000   -2.3028    0.0000 Cl  0  0  0  0  0  0  0  0  0  0  0  0
  1  2  1  0  0  0  0 
  2  3  2  0  0  0  0 
  2  4  1  0  0  0  0 
  3  5  1  0  0  0  0 
  3  6  1  0  0  0  0 
  7  4  2  0  0  0  0 
  4  8  1  0  0  0  0 
  5  9  2  0  0  0  0 
  9  7  1  0  0  0  0 
  9 10  1  0  0  0  0 
M  END
> <Name>
2,4,6-TRICHLOROPHENOL

> <Source>
DSSTox2DMolFile

> <Tox>
-2.097

> <CAS>
88-06-2

$$$$

  CDK

  8  7  0  0  0  0  0  0  0  0999 V2000
    0.0901    1.0176   -0.0817 C   0  0  0  0  0  0  0  0  0  0  0  0
   -0.0934   -0.3337    0.5858 C   0  0  0  0  0  0  0  0  0  0  0  0
    0.1246    1.3174   -1.2615 O   0  0  0  0  0  0  0  0  0  0  0  0
    0.2465    2.0554    0.7766 O   0  0  0  0  0  0  0  0  0  0  0  0
   -1.0862   -1.2041   -0.1855 C   0  0  0  0  0  0  0  0  0  0  0  0
    1.2656   -1.0196    0.7599 C   0  0  0  0  0  0  0  0  0  0  0  0
   -2.5150   -0.7486    0.0107 C   0  0  0  0  0  0  0  0  0  0  0  0
    1.9456   -1.4094   -0.5332 C   0  0  0  0  0  0  0  0  0  0  0  0
  1  2  1  0  0  0  0 
  1  3  2  0  0  0  0 
  1  4  1  0  0  0  0 
  2  5  1  0  0  0  0 
  2  6  1  0  0  0  0 
  5  7  1  0  0  0  0 
  6  8  1  0  0  0  0 
M  END
> <Name>
2-ETHYLBUTYRIC ACID

> <Source>
DougDB3DMolFile

> <Tox>
-0.726

> <CAS>
88-09-5

$$$$

  CDK

 11 11  0  0  0  0  0  0  0  0999 V2000
    3.9882   -3.6319    0.0000 F   0  0  0  0  0  0  0  0  0  0  0  0
    3.9882   -2.3025    0.0000 C   0  0  0  0  0  0  0  0  0  0  0  0
    3.9882   -0.9731    0.0000 F   0  0  0  0  0  0  0  0  0  0  0  0
    5.3175   -2.3025    0.0000 F   0  0  0  0  0  0  0  0  0  0  0  0
    2.6588   -2.3025    0.0000 C   0  0  0  0  0  0  0  0  0  0  0  0
    1.9941   -3.4564    0.0000 C   0  0  0  0  0  0  0  0  0  0  0  0
    1.9941   -1.1486    0.0000 C   0  0  0  0  0  0  0  0  0  0  0  0
    0.6647   -3.4564    0.0000 C   0  0  0  0  0  0  0  0  0  0  0  0
    0.6647   -1.1486    0.0000 C   0  0  0  0  0  0  0  0  0  0  0  0
    2.6588   -0.0000    0.0000 Cl  0  0  0  0  0  0  0  0  0  0  0  0
    0.0000   -2.3025    0.0000 C   0  0  0  0  0  0  0  0  0  0  0  0
  1  2  1  0  0  0  0 
  2  3  1  0  0  0  0 
  2  4  1  0  0  0  0 
  2  5  1  0  0  0  0 
  5  6  2  0  0  0  0 
  5  7  1  0  0  0  0 
  6  8  1  0  0  0  0 
  9  7  2  0  0  0  0 
  7 10  1  0  0  0  0 
  8 11  2  0  0  0  0 
 11  9  1  0  0  0  0 
M  END
> <Name>
CHLORO(TRIFLUOROMETHYL)BENZENE

> <Source>
DSSTox2DMolFile

> <Tox>
0.706

> <CAS>
88-16-4

$$$$

  CDK

 11 11  0  0  0  0  0  0  0  0999 V2000
    1.1483   -1.3412    0.0000 C   0  0  0  0  0  0  0  0  0  0  0  0
    1.1483   -0.0000    0.0000 O   0  0  0  0  0  0  0  0  0  0  0  0
    2.2966   -1.9935    0.0000 C   0  0  0  0  0  0  0  0  0  0  0  0
    0.0000   -1.9935    0.0000 C   0  0  0  0  0  0  0  0  0  0  0  0
    2.2966   -3.3163    0.0000 C   0  0  0  0  0  0  0  0  0  0  0  0
    3.4449   -1.3412    0.0000 C   0  0  0  0  0  0  0  0  0  0  0  0
    0.0000   -3.3163    0.0000 C   0  0  0  0  0  0  0  0  0  0  0  0
    1.1483   -3.9869    0.0000 C   0  0  0  0  0  0  0  0  0  0  0  0
    3.1280   -0.0965    0.0000 C   0  0  0  0  0  0  0  0  0  0  0  0
    4.4003   -2.3747    0.0000 C   0  0  0  0  0  0  0  0  0  0  0  0
    4.5932   -0.6706    0.0000 C   0  0  0  0  0  0  0  0  0  0  0  0
  1  2  1  0  0  0  0 
  1  3  2  0  0  0  0 
  1  4  1  0  0  0  0 
  3  5  1  0  0  0  0 
  3  6  1  0  0  0  0 
  4  7  2  0  0  0  0 
  5  8  2  0  0  0  0 
  6  9  1  0  0  0  0 
  6 10  1  0  0  0  0 
  6 11  1  0  0  0  0 
  7  8  1  0  0  0  0 
M  END
> <Name>
O-T-BUTYLPHENOL

> <Source>
DSSTox2DMolFile

> <Tox>
-1.046

> <CAS>
88-18-6

$$$$

  CDK

 10 10  0  0  0  0  0  0  0  0999 V2000
    3.9896   -2.3044    0.0000 N   0  0  0  0  0  0  0  0  0  0  0  0
    4.6553   -3.4542    0.0000 O   0  0  0  0  0  0  0  0  0  0  0  0
    4.6553   -1.1499    0.0000 O   0  0  0  0  0  0  0  0  0  0  0  0
    2.6582   -2.3044    0.0000 C   0  0  0  0  0  0  0  0  0  0  0  0
    1.9971   -3.4542    0.0000 C   0  0  0  0  0  0  0  0  0  0  0  0
    1.9971   -1.1499    0.0000 C   0  0  0  0  0  0  0  0  0  0  0  0
    0.6657   -3.4542    0.0000 C   0  0  0  0  0  0  0  0  0  0  0  0
    0.6657   -1.1499    0.0000 C   0  0  0  0  0  0  0  0  0  0  0  0
    2.6582   -0.0000    0.0000 C   0  0  0  0  0  0  0  0  0  0  0  0
    0.0000   -2.3044    0.0000 C   0  0  0  0  0  0  0  0  0  0  0  0
  1  2  2  0  0  0  0 
  1  3  1  0  0  0  0 
  1  4  1  0  0  0  0 
  4  5  2  0  0  0  0 
  4  6  1  0  0  0  0 
  5  7  1  0  0  0  0 
  8  6  2  0  0  0  0 
  6  9  1  0  0  0  0 
  7 10  2  0  0  0  0 
 10  8  1  0  0  0  0 
M  CHG  1   1   1
M  CHG  1   3  -1
M  END
> <Name>
2-NITROTOLUENE

> <Source>
DSSTox2DMolFile

> <Tox>
-0.726

> <CAS>
88-72-2

$$$$

  CDK

 10 10  0  0  0  0  0  0  0  0999 V2000
    2.6582   -0.0000    0.0000 Cl  0  0  0  0  0  0  0  0  0  0  0  0
    1.9971   -1.1499    0.0000 C   0  0  0  0  0  0  0  0  0  0  0  0
    2.6582   -2.3044    0.0000 C   0  0  0  0  0  0  0  0  0  0  0  0
    0.6657   -1.1499    0.0000 C   0  0  0  0  0  0  0  0  0  0  0  0
    1.9971   -3.4542    0.0000 C   0  0  0  0  0  0  0  0  0  0  0  0
    3.9896   -2.3044    0.0000 N   0  0  0  0  0  0  0  0  0  0  0  0
    0.0000   -2.3044    0.0000 C   0  0  0  0  0  0  0  0  0  0  0  0
    0.6657   -3.4542    0.0000 C   0  0  0  0  0  0  0  0  0  0  0  0
    4.6553   -1.1499    0.0000 O   0  0  0  0  0  0  0  0  0  0  0  0
    4.6553   -3.4542    0.0000 O   0  0  0  0  0  0  0  0  0  0  0  0
  1  2  1  0  0  0  0 
  2  3  2  0  0  0  0 
  2  4  1  0  0  0  0 
  3  5  1  0  0  0  0 
  3  6  1  0  0  0  0 
  7  4  2  0  0  0  0 
  5  8  2  0  0  0  0 
  6  9  2  0  0  0  0 
  6 10  1  0  0  0  0 
  8  7  1  0  0  0  0 
M  CHG  1   6   1
M  CHG  1  10  -1
M  END
> <Name>
2-CHLORO-1-NITROBENZENE

> <Source>
DSSTox2DMolFile

> <Tox>
-1.740

> <CAS>
88-73-3

$$$$

  CDK

 10 10  0  0  0  0  0  0  0  0999 V2000
    2.6582   -0.0000    0.0000 O   0  0  0  0  0  0  0  0  0  0  0  0
    1.9971   -1.1499    0.0000 C   0  0  0  0  0  0  0  0  0  0  0  0
    2.6582   -2.3044    0.0000 C   0  0  0  0  0  0  0  0  0  0  0  0
    0.6657   -1.1499    0.0000 C   0  0  0  0  0  0  0  0  0  0  0  0
    3.9896   -2.3044    0.0000 N   0  0  0  0  0  0  0  0  0  0  0  0
    1.9971   -3.4542    0.0000 C   0  0  0  0  0  0  0  0  0  0  0  0
    0.0000   -2.3044    0.0000 C   0  0  0  0  0  0  0  0  0  0  0  0
    4.6553   -1.1499    0.0000 O   0  0  0  0  0  0  0  0  0  0  0  0
    4.6553   -3.4542    0.0000 O   0  0  0  0  0  0  0  0  0  0  0  0
    0.6657   -3.4542    0.0000 C   0  0  0  0  0  0  0  0  0  0  0  0
  1  2  1  0  0  0  0 
  2  3  2  0  0  0  0 
  2  4  1  0  0  0  0 
  3  5  1  0  0  0  0 
  3  6  1  0  0  0  0 
  7  4  2  0  0  0  0 
  5  8  1  0  0  0  0 
  5  9  2  0  0  0  0 
  6 10  2  0  0  0  0 
 10  7  1  0  0  0  0 
M  CHG  1   5   1
M  CHG  1   8  -1
M  END
> <Name>
2-NITROPHENOL

> <Source>
DSSTox2DMolFile

> <Tox>
-0.947

> <CAS>
88-75-5

$$$$

  CDK

 16 16  0  0  0  0  0  0  0  0999 V2000
    0.6632   -3.4542    0.0000 N   0  0  0  0  0  0  0  0  0  0  0  0
    0.0000   -4.6079    0.0000 O   0  0  0  0  0  0  0  0  0  0  0  0
    0.0000   -2.3005    0.0000 O   0  0  0  0  0  0  0  0  0  0  0  0
    1.9965   -3.4542    0.0000 C   0  0  0  0  0  0  0  0  0  0  0  0
    2.6597   -2.3005    0.0000 C   0  0  0  0  0  0  0  0  0  0  0  0
    2.6597   -4.6079    0.0000 C   0  0  0  0  0  0  0  0  0  0  0  0
    3.9862   -2.3005    0.0000 C   0  0  0  0  0  0  0  0  0  0  0  0
    3.9862   -4.6079    0.0000 C   0  0  0  0  0  0  0  0  0  0  0  0
    1.9965   -5.7547    0.0000 O   0  0  0  0  0  0  0  0  0  0  0  0
    4.6563   -3.4542    0.0000 C   0  0  0  0  0  0  0  0  0  0  0  0
    4.6563   -1.1537    0.0000 N   0  0  0  0  0  0  0  0  0  0  0  0
    4.6563   -5.7547    0.0000 N   0  0  0  0  0  0  0  0  0  0  0  0
    3.9862   -0.0000    0.0000 O   0  0  0  0  0  0  0  0  0  0  0  0
    5.9827   -1.1537    0.0000 O   0  0  0  0  0  0  0  0  0  0  0  0
    3.9862   -6.9084    0.0000 O   0  0  0  0  0  0  0  0  0  0  0  0
    5.9827   -5.7547    0.0000 O   0  0  0  0  0  0  0  0  0  0  0  0
  1  2  2  0  0  0  0 
  1  3  1  0  0  0  0 
  1  4  1  0  0  0  0 
  4  5  2  0  0  0  0 
  4  6  1  0  0  0  0 
  5  7  1  0  0  0  0 
  8  6  2  0  0  0  0 
  6  9  1  0  0  0  0 
  7 10  2  0  0  0  0 
  7 11  1  0  0  0  0 
 10  8  1  0  0  0  0 
  8 12  1  0  0  0  0 
 11 13  2  0  0  0  0 
 11 14  1  0  0  0  0 
 12 15  2  0  0  0  0 
 12 16  1  0  0  0  0 
M  CHG  1   1   1
M  CHG  1   3  -1
M  CHG  1  11   1
M  CHG  1  12   1
M  CHG  1  14  -1
M  CHG  1  16  -1
M  END
> <Name>
2,4,6-TRINITROPHENOL

> <Source>
DSSTox2DMolFile

> <Tox>
-6.125

> <CAS>
88-89-1

$$$$

  CDK

 12 12  0  0  0  0  0  0  0  0999 V2000
    4.6548   -2.3041    0.0000 O   0  0  0  0  0  0  0  0  0  0  0  0
    3.9891   -3.4585    0.0000 C   0  0  0  0  0  0  0  0  0  0  0  0
    2.6579   -3.4585    0.0000 C   0  0  0  0  0  0  0  0  0  0  0  0
    4.6548   -4.6082    0.0000 O   0  0  0  0  0  0  0  0  0  0  0  0
    1.9969   -4.6082    0.0000 C   0  0  0  0  0  0  0  0  0  0  0  0
    1.9969   -2.3041    0.0000 C   0  0  0  0  0  0  0  0  0  0  0  0
    0.6656   -4.6082    0.0000 C   0  0  0  0  0  0  0  0  0  0  0  0
    0.6656   -2.3041    0.0000 C   0  0  0  0  0  0  0  0  0  0  0  0
    2.6579   -1.1544    0.0000 C   0  0  0  0  0  0  0  0  0  0  0  0
    0.0000   -3.4585    0.0000 C   0  0  0  0  0  0  0  0  0  0  0  0
    1.9969   -0.0000    0.0000 O   0  0  0  0  0  0  0  0  0  0  0  0
    3.9891   -1.1544    0.0000 O   0  0  0  0  0  0  0  0  0  0  0  0
  1  2  1  0  0  0  0 
  2  3  1  0  0  0  0 
  2  4  2  0  0  0  0 
  3  5  2  0  0  0  0 
  3  6  1  0  0  0  0 
  5  7  1  0  0  0  0 
  8  6  2  0  0  0  0 
  6  9  1  0  0  0  0 
  7 10  2  0  0  0  0 
 10  8  1  0  0  0  0 
  9 11  1  0  0  0  0 
  9 12  2  0  0  0  0 
M  END
> <Name>
O-PHTHALIC ACID

> <Source>
DSSTox2DMolFile

> <Tox>
-6.197

> <CAS>
88-99-3

$$$$

  CDK

 11 11  0  0  0  0  0  0  0  0999 V2000
    3.9788   -2.3099    0.0000 O   0  0  0  0  0  0  0  0  0  0  0  0
    2.6448   -2.3099    0.0000 C   0  0  0  0  0  0  0  0  0  0  0  0
    1.9865   -1.1549    0.0000 C   0  0  0  0  0  0  0  0  0  0  0  0
    1.9865   -3.4648    0.0000 C   0  0  0  0  0  0  0  0  0  0  0  0
    0.6583   -1.1549    0.0000 C   0  0  0  0  0  0  0  0  0  0  0  0
    0.6583   -3.4648    0.0000 C   0  0  0  0  0  0  0  0  0  0  0  0
    2.6448   -4.6198    0.0000 C   0  0  0  0  0  0  0  0  0  0  0  0
    0.0000   -2.3099    0.0000 C   0  0  0  0  0  0  0  0  0  0  0  0
    0.0000   -0.0000    0.0000 C   0  0  0  0  0  0  0  0  0  0  0  0
    1.9865   -5.7747    0.0000 C   0  0  0  0  0  0  0  0  0  0  0  0
    3.9788   -4.6198    0.0000 C   0  0  0  0  0  0  0  0  0  0  0  0
  1  2  1  0  0  0  0 
  2  3  1  0  0  0  0 
  2  4  1  0  0  0  0 
  3  5  1  0  0  0  0 
  4  6  1  0  0  0  0 
  4  7  1  0  0  0  0 
  5  8  1  0  0  0  0 
  5  9  1  0  0  0  0 
  8  6  1  0  0  0  0 
  7 10  1  0  0  0  0 
  7 11  1  0  0  0  0 
M  END
> <Name>
MENTHOL

> <Source>
DSSTox2DMolFile

> <Tox>
-0.959

> <CAS>
89-78-1

$$$$

  CDK

 11 11  0  0  0  0  0  0  0  0999 V2000
    3.9910   -0.0000    0.0000 O   0  0  0  0  0  0  0  0  0  0  0  0
    3.3269   -1.1488    0.0000 C   0  0  0  0  0  0  0  0  0  0  0  0
    3.9910   -2.3037    0.0000 C   0  0  0  0  0  0  0  0  0  0  0  0
    1.9925   -1.1488    0.0000 C   0  0  0  0  0  0  0  0  0  0  0  0
    5.3194   -2.3037    0.0000 C   0  0  0  0  0  0  0  0  0  0  0  0
    3.3269   -3.4525    0.0000 C   0  0  0  0  0  0  0  0  0  0  0  0
    1.3283   -2.3037    0.0000 C   0  0  0  0  0  0  0  0  0  0  0  0
    5.9835   -3.4525    0.0000 C   0  0  0  0  0  0  0  0  0  0  0  0
    5.9835   -1.1488    0.0000 C   0  0  0  0  0  0  0  0  0  0  0  0
    1.9925   -3.4525    0.0000 C   0  0  0  0  0  0  0  0  0  0  0  0
    0.0000   -2.3037    0.0000 C   0  0  0  0  0  0  0  0  0  0  0  0
  1  2  2  0  0  0  0 
  2  3  1  0  0  0  0 
  2  4  1  0  0  0  0 
  3  5  2  0  0  0  0 
  3  6  1  0  0  0  0 
  7  4  1  0  0  0  0 
  5  8  1  0  0  0  0 
  5  9  1  0  0  0  0 
  6 10  1  0  0  0  0 
 10  7  1  0  0  0  0 
  7 11  1  0  0  0  0 
M  END
> <Name>
Pulegone

> <Source>
DSSTox2DMolFile

> <Tox>
-0.910

> <CAS>
89-82-7

$$$$

  CDK

 11 11  0  0  0  0  0  0  0  0999 V2000
    2.3101   -3.3181    0.0000 C   0  0  0  0  0  0  0  0  0  0  0  0
    1.1580   -3.9961    0.0000 C   0  0  0  0  0  0  0  0  0  0  0  0
    2.3101   -1.9921    0.0000 C   0  0  0  0  0  0  0  0  0  0  0  0
    3.4681   -3.9961    0.0000 O   0  0  0  0  0  0  0  0  0  0  0  0
    0.0000   -3.3181    0.0000 C   0  0  0  0  0  0  0  0  0  0  0  0
    1.1580   -5.3282    0.0000 C   0  0  0  0  0  0  0  0  0  0  0  0
    1.1580   -1.3140    0.0000 C   0  0  0  0  0  0  0  0  0  0  0  0
    0.0000   -1.9921    0.0000 C   0  0  0  0  0  0  0  0  0  0  0  0
    2.2921   -5.9822    0.0000 C   0  0  0  0  0  0  0  0  0  0  0  0
    0.0180   -6.0002    0.0000 C   0  0  0  0  0  0  0  0  0  0  0  0
    1.1580   -0.0000    0.0000 C   0  0  0  0  0  0  0  0  0  0  0  0
  1  2  1  0  0  0  0 
  1  3  2  0  0  0  0 
  1  4  1  0  0  0  0 
  2  5  2  0  0  0  0 
  2  6  1  0  0  0  0 
  3  7  1  0  0  0  0 
  5  8  1  0  0  0  0 
  6  9  1  0  0  0  0 
  6 10  1  0  0  0  0 
  8  7  2  0  0  0  0 
  7 11  1  0  0  0  0 
M  END
> <Name>
THYMOL

> <Source>
DSSTox2DMolFile

> <Tox>
-2.658

> <CAS>
89-83-8

$$$$

  CDK

 11 11  0  0  0  0  0  0  0  0999 V2000
    0.0000   -2.3037    0.0000 C   0  0  0  0  0  0  0  0  0  0  0  0
    1.3283   -2.3037    0.0000 C   0  0  0  0  0  0  0  0  0  0  0  0
    1.9925   -1.1488    0.0000 C   0  0  0  0  0  0  0  0  0  0  0  0
    1.9925   -3.4525    0.0000 C   0  0  0  0  0  0  0  0  0  0  0  0
    3.3269   -1.1488    0.0000 C   0  0  0  0  0  0  0  0  0  0  0  0
    3.3269   -3.4525    0.0000 C   0  0  0  0  0  0  0  0  0  0  0  0
    3.9910   -2.3037    0.0000 C   0  0  0  0  0  0  0  0  0  0  0  0
    3.9910   -0.0000    0.0000 C   0  0  0  0  0  0  0  0  0  0  0  0
    5.3194   -2.3037    0.0000 N   0  0  0  0  0  0  0  0  0  0  0  0
    5.9835   -3.4525    0.0000 O   0  0  0  0  0  0  0  0  0  0  0  0
    5.9835   -1.1488    0.0000 O   0  0  0  0  0  0  0  0  0  0  0  0
  1  2  1  0  0  0  0 
  2  3  2  0  0  0  0 
  2  4  1  0  0  0  0 
  3  5  1  0  0  0  0 
  6  4  2  0  0  0  0 
  5  7  2  0  0  0  0 
  5  8  1  0  0  0  0 
  7  6  1  0  0  0  0 
  7  9  1  0  0  0  0 
  9 10  1  0  0  0  0 
  9 11  2  0  0  0  0 
M  CHG  1   9   1
M  CHG  1  10  -1
M  END
> <Name>
4-NITRO-M-XYLENE

> <Source>
DSSTox2DMolFile

> <Tox>
-1.242

> <CAS>
89-87-2

$$$$

  CDK

  9  9  0  0  0  0  0  0  0  0999 V2000
    1.9976   -1.1501    0.0000 C   0  0  0  0  0  0  0  0  0  0  0  0
    2.6588   -2.3049    0.0000 C   0  0  0  0  0  0  0  0  0  0  0  0
    0.6659   -1.1501    0.0000 C   0  0  0  0  0  0  0  0  0  0  0  0
    2.6588   -0.0000    0.0000 O   0  0  0  0  0  0  0  0  0  0  0  0
    3.9905   -2.3049    0.0000 C   0  0  0  0  0  0  0  0  0  0  0  0
    1.9976   -3.4550    0.0000 C   0  0  0  0  0  0  0  0  0  0  0  0
    0.0000   -2.3049    0.0000 C   0  0  0  0  0  0  0  0  0  0  0  0
    4.6563   -3.4550    0.0000 C   0  0  0  0  0  0  0  0  0  0  0  0
    0.6659   -3.4550    0.0000 C   0  0  0  0  0  0  0  0  0  0  0  0
  1  2  2  0  0  0  0 
  1  3  1  0  0  0  0 
  1  4  1  0  0  0  0 
  2  5  1  0  0  0  0 
  2  6  1  0  0  0  0 
  7  3  2  0  0  0  0 
  5  8  1  0  0  0  0 
  6  9  2  0  0  0  0 
  9  7  1  0  0  0  0 
M  END
> <Name>
O-ETHYLPHENOL

> <Source>
DSSTox2DMolFile

> <Tox>
-0.815

> <CAS>
90-00-6

$$$$

  CDK

  9  9  0  0  0  0  0  0  0  0999 V2000
    1.9859   -1.1507    0.0000 C   0  0  0  0  0  0  0  0  0  0  0  0
    2.6540   -2.3061    0.0000 C   0  0  0  0  0  0  0  0  0  0  0  0
    2.6540   -0.0000    0.0000 N   0  0  0  0  0  0  0  0  0  0  0  0
    0.6542   -1.1507    0.0000 C   0  0  0  0  0  0  0  0  0  0  0  0
    3.9857   -2.3061    0.0000 O   0  0  0  0  0  0  0  0  0  0  0  0
    1.9859   -3.4568    0.0000 C   0  0  0  0  0  0  0  0  0  0  0  0
    0.0000   -2.3061    0.0000 C   0  0  0  0  0  0  0  0  0  0  0  0
    4.6399   -1.1507    0.0000 C   0  0  0  0  0  0  0  0  0  0  0  0
    0.6542   -3.4568    0.0000 C   0  0  0  0  0  0  0  0  0  0  0  0
  1  2  1  0  0  0  0 
  1  3  1  0  0  0  0 
  1  4  2  0  0  0  0 
  2  5  1  0  0  0  0 
  2  6  2  0  0  0  0 
  4  7  1  0  0  0  0 
  5  8  1  0  0  0  0 
  6  9  1  0  0  0  0 
  7  9  2  0  0  0  0 
M  END
> <Name>
2-METHOXYANILINE

> <Source>
DSSTox2DMolFile

> <Tox>
-1.097

> <CAS>
90-04-0

$$$$

  CDK

  9  9  0  0  0  0  0  0  0  0999 V2000
    3.9905   -1.1501    0.0000 C   0  0  0  0  0  0  0  0  0  0  0  0
    4.6563   -2.3049    0.0000 C   0  0  0  0  0  0  0  0  0  0  0  0
    2.6588   -1.1501    0.0000 C   0  0  0  0  0  0  0  0  0  0  0  0
    3.9905   -3.4550    0.0000 C   0  0  0  0  0  0  0  0  0  0  0  0
    1.9976   -2.3049    0.0000 C   0  0  0  0  0  0  0  0  0  0  0  0
    1.9976   -0.0000    0.0000 O   0  0  0  0  0  0  0  0  0  0  0  0
    2.6588   -3.4550    0.0000 C   0  0  0  0  0  0  0  0  0  0  0  0
    0.6659   -2.3049    0.0000 O   0  0  0  0  0  0  0  0  0  0  0  0
    0.0000   -3.4550    0.0000 C   0  0  0  0  0  0  0  0  0  0  0  0
  1  2  2  0  0  0  0 
  1  3  1  0  0  0  0 
  2  4  1  0  0  0  0 
  5  3  2  0  0  0  0 
  3  6  1  0  0  0  0 
  4  7  2  0  0  0  0 
  7  5  1  0  0  0  0 
  5  8  1  0  0  0  0 
  8  9  1  0  0  0  0 
M  END
> <Name>
2-METHOXYPHENOL

> <Source>
DSSTox2DMolFile

> <Tox>
-0.987

> <CAS>
90-05-1

$$$$

  CDK

 11 12  0  0  0  0  0  0  0  0999 V2000
    0.0000   -2.6579    0.0000 C   0  0  0  0  0  0  0  0  0  0  0  0
    1.1497   -1.9969    0.0000 C   0  0  0  0  0  0  0  0  0  0  0  0
    2.3041   -2.6579    0.0000 C   0  0  0  0  0  0  0  0  0  0  0  0
    1.1497   -0.6656    0.0000 C   0  0  0  0  0  0  0  0  0  0  0  0
    3.4538   -1.9969    0.0000 C   0  0  0  0  0  0  0  0  0  0  0  0
    2.3041   -3.9891    0.0000 C   0  0  0  0  0  0  0  0  0  0  0  0
    2.3041   -0.0000    0.0000 C   0  0  0  0  0  0  0  0  0  0  0  0
    3.4538   -0.6656    0.0000 C   0  0  0  0  0  0  0  0  0  0  0  0
    4.6082   -2.6579    0.0000 C   0  0  0  0  0  0  0  0  0  0  0  0
    3.4538   -4.6548    0.0000 C   0  0  0  0  0  0  0  0  0  0  0  0
    4.6082   -3.9891    0.0000 C   0  0  0  0  0  0  0  0  0  0  0  0
  1  2  1  0  0  0  0 
  2  3  2  0  0  0  0 
  2  4  1  0  0  0  0 
  3  5  1  0  0  0  0 
  3  6  1  0  0  0  0 
  7  4  2  0  0  0  0 
  5  8  2  0  0  0  0 
  5  9  1  0  0  0  0 
 10  6  2  0  0  0  0 
  8  7  1  0  0  0  0 
  9 11  2  0  0  0  0 
 11 10  1  0  0  0  0 
M  END
> <Name>
1-METHYLNAPHTHALENE

> <Source>
DSSTox2DMolFile

> <Tox>
-1.174

> <CAS>
90-12-0

$$$$

  CDK

 11 12  0  0  0  0  0  0  0  0999 V2000
    0.0000   -1.5884    0.0000 C   0  0  0  0  0  0  0  0  0  0  0  0
    0.0000   -2.9586    0.0000 C   0  0  0  0  0  0  0  0  0  0  0  0
    1.1854   -0.9151    0.0000 C   0  0  0  0  0  0  0  0  0  0  0  0
    1.1854   -3.6461    0.0000 C   0  0  0  0  0  0  0  0  0  0  0  0
    2.3660   -1.5979    0.0000 C   0  0  0  0  0  0  0  0  0  0  0  0
    2.3660   -2.9634    0.0000 C   0  0  0  0  0  0  0  0  0  0  0  0
    3.5608   -0.9246    0.0000 C   0  0  0  0  0  0  0  0  0  0  0  0
    3.5608   -3.6509    0.0000 C   0  0  0  0  0  0  0  0  0  0  0  0
    4.7414   -1.6073    0.0000 C   0  0  0  0  0  0  0  0  0  0  0  0
    3.5703   -0.0000    0.0000 Cl  0  0  0  0  0  0  0  0  0  0  0  0
    4.7414   -2.9681    0.0000 C   0  0  0  0  0  0  0  0  0  0  0  0
  1  2  1  0  0  0  0 
  1  3  2  0  0  0  0 
  2  4  2  0  0  0  0 
  5  3  1  0  0  0  0 
  4  6  1  0  0  0  0 
  6  5  1  0  0  0  0 
  5  7  2  0  0  0  0 
  6  8  2  0  0  0  0 
  9  7  1  0  0  0  0 
  7 10  1  0  0  0  0 
  8 11  1  0  0  0  0 
 11  9  2  0  0  0  0 
M  END
> <Name>
1-CHLORONAPHTHALENE

> <Source>
DSSTox2DMolFile

> <Tox>
-1.538

> <CAS>
90-13-1

$$$$

  CDK

 11 12  0  0  0  0  0  0  0  0999 V2000
    3.4555   -0.0000    0.0000 O   0  0  0  0  0  0  0  0  0  0  0  0
    3.4555   -1.3315    0.0000 C   0  0  0  0  0  0  0  0  0  0  0  0
    4.6073   -1.9950    0.0000 C   0  0  0  0  0  0  0  0  0  0  0  0
    2.3037   -1.9950    0.0000 C   0  0  0  0  0  0  0  0  0  0  0  0
    4.6073   -3.3265    0.0000 C   0  0  0  0  0  0  0  0  0  0  0  0
    2.3037   -3.3265    0.0000 C   0  0  0  0  0  0  0  0  0  0  0  0
    1.1518   -1.3315    0.0000 C   0  0  0  0  0  0  0  0  0  0  0  0
    3.4555   -3.9899    0.0000 C   0  0  0  0  0  0  0  0  0  0  0  0
    1.1518   -3.9899    0.0000 C   0  0  0  0  0  0  0  0  0  0  0  0
    0.0000   -1.9950    0.0000 C   0  0  0  0  0  0  0  0  0  0  0  0
    0.0000   -3.3265    0.0000 C   0  0  0  0  0  0  0  0  0  0  0  0
  1  2  1  0  0  0  0 
  2  3  2  0  0  0  0 
  2  4  1  0  0  0  0 
  3  5  1  0  0  0  0 
  6  4  1  0  0  0  0 
  7  4  2  0  0  0  0 
  5  8  2  0  0  0  0 
  8  6  1  0  0  0  0 
  6  9  2  0  0  0  0 
 10  7  1  0  0  0  0 
  9 11  1  0  0  0  0 
 11 10  2  0  0  0  0 
M  END
> <Name>
1-NAPHTHOL

> <Source>
DSSTox2DMolFile

> <Tox>
-3.562

> <CAS>
90-15-3

$$$$

  CDK

 13 14  0  0  0  0  0  0  0  0999 V2000
    2.6607   -0.0000    0.0000 O   0  0  0  0  0  0  0  0  0  0  0  0
    1.9955   -1.1574    0.0000 C   0  0  0  0  0  0  0  0  0  0  0  0
    2.6607   -2.3082    0.0000 C   0  0  0  0  0  0  0  0  0  0  0  0
    0.6652   -1.1574    0.0000 C   0  0  0  0  0  0  0  0  0  0  0  0
    1.9955   -3.4589    0.0000 C   0  0  0  0  0  0  0  0  0  0  0  0
    3.9910   -2.3082    0.0000 C   0  0  0  0  0  0  0  0  0  0  0  0
    0.0000   -2.3082    0.0000 C   0  0  0  0  0  0  0  0  0  0  0  0
    0.6652   -3.4589    0.0000 C   0  0  0  0  0  0  0  0  0  0  0  0
    4.6562   -1.1574    0.0000 C   0  0  0  0  0  0  0  0  0  0  0  0
    4.6562   -3.4589    0.0000 C   0  0  0  0  0  0  0  0  0  0  0  0
    5.9866   -1.1574    0.0000 C   0  0  0  0  0  0  0  0  0  0  0  0
    5.9866   -3.4589    0.0000 C   0  0  0  0  0  0  0  0  0  0  0  0
    6.6517   -2.3082    0.0000 C   0  0  0  0  0  0  0  0  0  0  0  0
  1  2  1  0  0  0  0 
  2  3  2  0  0  0  0 
  2  4  1  0  0  0  0 
  3  5  1  0  0  0  0 
  3  6  1  0  0  0  0 
  7  4  2  0  0  0  0 
  5  8  2  0  0  0  0 
  6  9  2  0  0  0  0 
  6 10  1  0  0  0  0 
  8  7  1  0  0  0  0 
  9 11  1  0  0  0  0 
 12 10  2  0  0  0  0 
 11 13  2  0  0  0  0 
 13 12  1  0  0  0  0 
M  END
> <Name>
2-PHENYLPHENOL

> <Source>
DSSTox2DMolFile

> <Tox>
-2.699

> <CAS>
90-43-7

$$$$

  CDK

 13 13  0  0  0  0  0  0  0  0999 V2000
    0.0000   -2.6614    0.0000 O   0  0  0  0  0  0  0  0  0  0  0  0
    1.1511   -1.9891    0.0000 C   0  0  0  0  0  0  0  0  0  0  0  0
    2.3022   -1.3261    0.0000 N   0  0  0  0  0  0  0  0  0  0  0  0
    3.4533   -1.9891    0.0000 C   0  0  0  0  0  0  0  0  0  0  0  0
    4.6044   -1.3261    0.0000 C   0  0  0  0  0  0  0  0  0  0  0  0
    3.4533   -3.3244    0.0000 C   0  0  0  0  0  0  0  0  0  0  0  0
    5.7555   -1.9891    0.0000 C   0  0  0  0  0  0  0  0  0  0  0  0
    4.6044   -0.0000    0.0000 C   0  0  0  0  0  0  0  0  0  0  0  0
    4.6044   -3.9874    0.0000 C   0  0  0  0  0  0  0  0  0  0  0  0
    6.9067   -1.3261    0.0000 N   0  0  0  0  0  0  0  0  0  0  0  0
    5.7555   -3.3244    0.0000 C   0  0  0  0  0  0  0  0  0  0  0  0
    8.0578   -1.9891    0.0000 C   0  0  0  0  0  0  0  0  0  0  0  0
    9.2089   -2.6614    0.0000 O   0  0  0  0  0  0  0  0  0  0  0  0
  1  2  2  0  0  0  0 
  2  3  2  0  0  0  0 
  3  4  1  0  0  0  0 
  4  5  2  0  0  0  0 
  4  6  1  0  0  0  0 
  5  7  1  0  0  0  0 
  5  8  1  0  0  0  0 
  9  6  2  0  0  0  0 
  7 10  1  0  0  0  0 
  7 11  2  0  0  0  0 
 11  9  1  0  0  0  0 
 10 12  2  0  0  0  0 
 12 13  2  0  0  0  0 
M  END
> <Name>
TOLUENE-2,6-DIISOCYANATE

> <Source>
DSSTox2DMolFile

> <Tox>
-1.680

> <CAS>
91-08-7

$$$$

  CDK

 10 10  0  0  0  0  0  0  0  0999 V2000
    0.7106    0.1231    0.0019 C   0  0  0  0  0  0  0  0  0  0  0  0
   -0.7108    0.1228    0.0019 C   0  0  0  0  0  0  0  0  0  0  0  0
    1.3997   -1.0890    0.0003 C   0  0  0  0  0  0  0  0  0  0  0  0
    1.2990    1.3726    0.0049 O   0  0  0  0  0  0  0  0  0  0  0  0
   -1.3992   -1.0898    0.0009 C   0  0  0  0  0  0  0  0  0  0  0  0
   -1.2998    1.3721    0.0046 O   0  0  0  0  0  0  0  0  0  0  0  0
    0.6934   -2.2904   -0.0011 C   0  0  0  0  0  0  0  0  0  0  0  0
    2.7034    1.4234   -0.0056 C   0  0  0  0  0  0  0  0  0  0  0  0
   -0.6920   -2.2908   -0.0008 C   0  0  0  0  0  0  0  0  0  0  0  0
   -2.7042    1.4221   -0.0058 C   0  0  0  0  0  0  0  0  0  0  0  0
  1  2  1  0  0  0  0 
  1  3  2  0  0  0  0 
  1  4  1  0  0  0  0 
  2  5  2  0  0  0  0 
  2  6  1  0  0  0  0 
  7  3  1  0  0  0  0 
  4  8  1  0  0  0  0 
  5  9  1  0  0  0  0 
  6 10  1  0  0  0  0 
  9  7  2  0  0  0  0 
M  END
> <Name>
1,2-DIMETHOXYBENZENE

> <Source>
DougDB3DMolFile

> <Tox>
-0.328

> <CAS>
91-16-7

$$$$

  CDK

 10 11  0  0  0  0  0  0  0  0999 V2000
    2.3039   -0.6635    0.0000 C   0  0  0  0  0  0  0  0  0  0  0  0
    3.4558   -0.0000    0.0000 C   0  0  0  0  0  0  0  0  0  0  0  0
    2.3039   -1.9952    0.0000 C   0  0  0  0  0  0  0  0  0  0  0  0
    1.1519   -0.0000    0.0000 C   0  0  0  0  0  0  0  0  0  0  0  0
    4.6078   -0.6635    0.0000 C   0  0  0  0  0  0  0  0  0  0  0  0
    3.4558   -2.6587    0.0000 C   0  0  0  0  0  0  0  0  0  0  0  0
    1.1519   -2.6587    0.0000 C   0  0  0  0  0  0  0  0  0  0  0  0
    0.0000   -0.6635    0.0000 C   0  0  0  0  0  0  0  0  0  0  0  0
    4.6078   -1.9952    0.0000 C   0  0  0  0  0  0  0  0  0  0  0  0
    0.0000   -1.9952    0.0000 C   0  0  0  0  0  0  0  0  0  0  0  0
  1  2  1  0  0  0  0 
  1  3  1  0  0  0  0 
  1  4  1  0  0  0  0 
  2  5  1  0  0  0  0 
  6  3  1  0  0  0  0 
  3  7  1  0  0  0  0 
  8  4  1  0  0  0  0 
  5  9  1  0  0  0  0 
  9  6  1  0  0  0  0 
  7 10  1  0  0  0  0 
 10  8  1  0  0  0  0 
M  END
> <Name>
DECAHYDRONAPHTHALENE

> <Source>
DSSTox2DMolFile

> <Tox>
0.362

> <CAS>
91-17-8

$$$$

  CDK

 10 11  0  0  0  0  0  0  0  0999 V2000
    3.4558   -0.0000    0.0000 C   0  0  0  0  0  0  0  0  0  0  0  0
    2.3039   -0.6635    0.0000 C   0  0  0  0  0  0  0  0  0  0  0  0
    4.6078   -0.6635    0.0000 C   0  0  0  0  0  0  0  0  0  0  0  0
    2.3039   -1.9952    0.0000 C   0  0  0  0  0  0  0  0  0  0  0  0
    1.1519   -0.0000    0.0000 C   0  0  0  0  0  0  0  0  0  0  0  0
    4.6078   -1.9952    0.0000 C   0  0  0  0  0  0  0  0  0  0  0  0
    3.4558   -2.6587    0.0000 C   0  0  0  0  0  0  0  0  0  0  0  0
    1.1519   -2.6587    0.0000 C   0  0  0  0  0  0  0  0  0  0  0  0
    0.0000   -0.6635    0.0000 C   0  0  0  0  0  0  0  0  0  0  0  0
    0.0000   -1.9952    0.0000 C   0  0  0  0  0  0  0  0  0  0  0  0
  1  2  2  0  0  0  0 
  1  3  1  0  0  0  0 
  2  4  1  0  0  0  0 
  2  5  1  0  0  0  0 
  6  3  2  0  0  0  0 
  4  7  2  0  0  0  0 
  4  8  1  0  0  0  0 
  9  5  2  0  0  0  0 
  7  6  1  0  0  0  0 
  8 10  2  0  0  0  0 
 10  9  1  0  0  0  0 
M  END
> <Name>
NAPHTHALENE

> <Source>
DSSTox2DMolFile

> <Tox>
-1.071

> <CAS>
91-20-3

$$$$

  CDK

 10 11  0  0  0  0  0  0  0  0999 V2000
    3.4558   -2.6587    0.0000 N   0  0  0  0  0  0  0  0  0  0  0  0
    4.6078   -1.9952    0.0000 C   0  0  0  0  0  0  0  0  0  0  0  0
    2.3039   -1.9952    0.0000 C   0  0  0  0  0  0  0  0  0  0  0  0
    4.6078   -0.6635    0.0000 C   0  0  0  0  0  0  0  0  0  0  0  0
    2.3039   -0.6635    0.0000 C   0  0  0  0  0  0  0  0  0  0  0  0
    1.1519   -2.6587    0.0000 C   0  0  0  0  0  0  0  0  0  0  0  0
    3.4558   -0.0000    0.0000 C   0  0  0  0  0  0  0  0  0  0  0  0
    1.1519   -0.0000    0.0000 C   0  0  0  0  0  0  0  0  0  0  0  0
    0.0000   -1.9952    0.0000 C   0  0  0  0  0  0  0  0  0  0  0  0
    0.0000   -0.6635    0.0000 C   0  0  0  0  0  0  0  0  0  0  0  0
  1  2  2  0  0  0  0 
  1  3  1  0  0  0  0 
  2  4  1  0  0  0  0 
  5  3  2  0  0  0  0 
  3  6  1  0  0  0  0 
  4  7  2  0  0  0  0 
  7  5  1  0  0  0  0 
  5  8  1  0  0  0  0 
  6  9  2  0  0  0  0 
 10  8  2  0  0  0  0 
  9 10  1  0  0  0  0 
M  END
> <Name>
QUINOLINE

> <Source>
DSSTox2DMolFile

> <Tox>
-1.222

> <CAS>
91-22-5

$$$$

  CDK

 11 11  0  0  0  0  0  0  0  0999 V2000
    1.9971   -0.0000    0.0000 C   0  0  0  0  0  0  0  0  0  0  0  0
    2.6581   -1.1545    0.0000 O   0  0  0  0  0  0  0  0  0  0  0  0
    1.9971   -2.3043    0.0000 C   0  0  0  0  0  0  0  0  0  0  0  0
    2.6581   -3.4588    0.0000 C   0  0  0  0  0  0  0  0  0  0  0  0
    0.6657   -2.3043    0.0000 C   0  0  0  0  0  0  0  0  0  0  0  0
    1.9971   -4.6086    0.0000 C   0  0  0  0  0  0  0  0  0  0  0  0
    3.9895   -3.4588    0.0000 N   0  0  0  0  0  0  0  0  0  0  0  0
    0.0000   -3.4588    0.0000 C   0  0  0  0  0  0  0  0  0  0  0  0
    0.6657   -4.6086    0.0000 C   0  0  0  0  0  0  0  0  0  0  0  0
    4.6552   -2.3043    0.0000 O   0  0  0  0  0  0  0  0  0  0  0  0
    4.6552   -4.6086    0.0000 O   0  0  0  0  0  0  0  0  0  0  0  0
  1  2  1  0  0  0  0 
  2  3  1  0  0  0  0 
  3  4  2  0  0  0  0 
  3  5  1  0  0  0  0 
  4  6  1  0  0  0  0 
  4  7  1  0  0  0  0 
  8  5  2  0  0  0  0 
  6  9  2  0  0  0  0 
  7 10  2  0  0  0  0 
  7 11  1  0  0  0  0 
  9  8  1  0  0  0  0 
M  CHG  1   7   1
M  CHG  1  11  -1
M  END
> <Name>
2-NITROANISOLE

> <Source>
DSSTox2DMolFile

> <Tox>
-2.444

> <CAS>
91-23-6

$$$$

  CDK

 13 13  0  0  0  0  0  0  0  0999 V2000
    1.3442   -1.8047    0.3284 O   0  0  0  0  0  0  0  0  0  0  0  0
    0.4047   -0.8260    0.1988 C   0  0  0  0  0  0  0  0  0  0  0  0
    1.8402   -2.3895   -0.8739 C   0  0  0  0  0  0  0  0  0  0  0  0
    0.7769    0.5137    0.0867 C   0  0  0  0  0  0  0  0  0  0  0  0
   -0.9449   -1.1785    0.1824 C   0  0  0  0  0  0  0  0  0  0  0  0
   -0.2002    1.5008   -0.0417 C   0  0  0  0  0  0  0  0  0  0  0  0
    2.1798    0.9042    0.1062 C   0  0  0  0  0  0  0  0  0  0  0  0
   -1.9220   -0.1913    0.0538 C   0  0  0  0  0  0  0  0  0  0  0  0
   -1.5496    1.1483   -0.0582 C   0  0  0  0  0  0  0  0  0  0  0  0
    2.4148    2.0301   -0.6205 O   0  0  0  0  0  0  0  0  0  0  0  0
    3.0796    0.3051    0.7019 O   0  0  0  0  0  0  0  0  0  0  0  0
   -3.2387   -0.5356    0.0360 O   0  0  0  0  0  0  0  0  0  0  0  0
   -4.1849    0.5235   -0.0999 C   0  0  0  0  0  0  0  0  0  0  0  0
  1  2  1  0  0  0  0 
  1  3  1  0  0  0  0 
  2  4  2  0  0  0  0 
  2  5  1  0  0  0  0 
  4  6  1  0  0  0  0 
  4  7  1  0  0  0  0 
  8  5  2  0  0  0  0 
  6  9  2  0  0  0  0 
 10  7  1  0  0  0  0 
 11  7  2  0  0  0  0 
 12  8  1  0  0  0  0 
  8  9  1  0  0  0  0 
 12 13  1  0  0  0  0 
M  END
> <Name>
2,4-DIMETHOXYBENZOIC ACID

> <Source>
Chemidplus3DMolFile

> <Tox>
-2.453

> <CAS>
91-52-1

$$$$

  CDK

 11 12  0  0  0  0  0  0  0  0999 V2000
    2.2832   -0.6556    0.0000 C   0  0  0  0  0  0  0  0  0  0  0  0
    1.1445   -0.0000    0.0000 C   0  0  0  0  0  0  0  0  0  0  0  0
    3.4449   -0.0000    0.0000 C   0  0  0  0  0  0  0  0  0  0  0  0
    2.2832   -2.0071    0.0000 C   0  0  0  0  0  0  0  0  0  0  0  0
    0.0000   -0.6556    0.0000 C   0  0  0  0  0  0  0  0  0  0  0  0
    4.5893   -0.6729    0.0000 C   0  0  0  0  0  0  0  0  0  0  0  0
    1.1445   -2.6627    0.0000 C   0  0  0  0  0  0  0  0  0  0  0  0
    3.4449   -2.6627    0.0000 C   0  0  0  0  0  0  0  0  0  0  0  0
    0.0000   -2.0071    0.0000 C   0  0  0  0  0  0  0  0  0  0  0  0
    4.5893   -2.0071    0.0000 C   0  0  0  0  0  0  0  0  0  0  0  0
    5.7510   -0.0000    0.0000 C   0  0  0  0  0  0  0  0  0  0  0  0
  1  2  2  0  0  0  0 
  1  3  1  0  0  0  0 
  1  4  1  0  0  0  0 
  2  5  1  0  0  0  0 
  3  6  2  0  0  0  0 
  4  7  2  0  0  0  0 
  4  8  1  0  0  0  0 
  5  9  2  0  0  0  0 
  6 10  1  0  0  0  0 
  6 11  1  0  0  0  0 
  7  9  1  0  0  0  0 
  8 10  2  0  0  0  0 
M  END
> <Name>
2-METHYLNAPHTHALENE

> <Source>
DSSTox2DMolFile

> <Tox>
-1.260

> <CAS>
91-57-6

$$$$

  CDK

 11 12  0  0  0  0  0  0  0  0999 V2000
    3.4485   -0.6932    0.0000 C   0  0  0  0  0  0  0  0  0  0  0  0
    3.4485   -2.0102    0.0000 C   0  0  0  0  0  0  0  0  0  0  0  0
    2.3279   -0.0347    0.0000 C   0  0  0  0  0  0  0  0  0  0  0  0
    4.6211   -0.0347    0.0000 C   0  0  0  0  0  0  0  0  0  0  0  0
    2.3106   -2.6629    0.0000 C   0  0  0  0  0  0  0  0  0  0  0  0
    4.6211   -2.6976    0.0000 C   0  0  0  0  0  0  0  0  0  0  0  0
    1.1553   -0.6758    0.0000 C   0  0  0  0  0  0  0  0  0  0  0  0
    5.7764   -0.6932    0.0000 C   0  0  0  0  0  0  0  0  0  0  0  0
    1.1553   -2.0102    0.0000 C   0  0  0  0  0  0  0  0  0  0  0  0
    5.7764   -2.0102    0.0000 C   0  0  0  0  0  0  0  0  0  0  0  0
    0.0000   -0.0000    0.0000 Cl  0  0  0  0  0  0  0  0  0  0  0  0
  1  2  1  0  0  0  0 
  1  3  2  0  0  0  0 
  1  4  1  0  0  0  0 
  2  5  2  0  0  0  0 
  2  6  1  0  0  0  0 
  3  7  1  0  0  0  0 
  4  8  2  0  0  0  0 
  5  9  1  0  0  0  0 
  6 10  2  0  0  0  0 
  7 11  1  0  0  0  0 
  7  9  2  0  0  0  0 
  8 10  1  0  0  0  0 
M  END
> <Name>
2-CHLORONAPHTHALENE

> <Source>
DSSTox2DMolFile

> <Tox>
-1.914

> <CAS>
91-58-7

$$$$

  CDK

 11 12  0  0  0  0  0  0  0  0999 V2000
    3.4554   -1.9983    0.0000 C   0  0  0  0  0  0  0  0  0  0  0  0
    3.4554   -0.6680    0.0000 C   0  0  0  0  0  0  0  0  0  0  0  0
    2.3036   -2.6606    0.0000 C   0  0  0  0  0  0  0  0  0  0  0  0
    4.6071   -2.6606    0.0000 C   0  0  0  0  0  0  0  0  0  0  0  0
    2.3036   -0.0000    0.0000 C   0  0  0  0  0  0  0  0  0  0  0  0
    4.6071   -0.0000    0.0000 C   0  0  0  0  0  0  0  0  0  0  0  0
    1.1518   -1.9983    0.0000 C   0  0  0  0  0  0  0  0  0  0  0  0
    5.7589   -1.9983    0.0000 C   0  0  0  0  0  0  0  0  0  0  0  0
    1.1518   -0.6680    0.0000 C   0  0  0  0  0  0  0  0  0  0  0  0
    5.7589   -0.6680    0.0000 C   0  0  0  0  0  0  0  0  0  0  0  0
    0.0000   -2.6606    0.0000 N   0  0  0  0  0  0  0  0  0  0  0  0
  1  2  2  0  0  0  0 
  1  3  1  0  0  0  0 
  1  4  1  0  0  0  0 
  2  5  1  0  0  0  0 
  2  6  1  0  0  0  0 
  7  3  2  0  0  0  0 
  8  4  2  0  0  0  0 
  5  9  2  0  0  0  0 
  6 10  2  0  0  0  0 
  9  7  1  0  0  0  0 
  7 11  1  0  0  0  0 
 10  8  1  0  0  0  0 
M  END
> <Name>
2-NAPHTHYLAMINE

> <Source>
DSSTox2DMolFile

> <Tox>
-3.592

> <CAS>
91-59-8

$$$$

  CDK

 11 12  0  0  0  0  0  0  0  0999 V2000
    5.7589   -2.6606    0.0000 C   0  0  0  0  0  0  0  0  0  0  0  0
    4.6071   -1.9983    0.0000 C   0  0  0  0  0  0  0  0  0  0  0  0
    3.4554   -2.6606    0.0000 C   0  0  0  0  0  0  0  0  0  0  0  0
    4.6071   -0.6680    0.0000 C   0  0  0  0  0  0  0  0  0  0  0  0
    2.3036   -1.9983    0.0000 C   0  0  0  0  0  0  0  0  0  0  0  0
    3.4554   -0.0000    0.0000 C   0  0  0  0  0  0  0  0  0  0  0  0
    1.1518   -2.6606    0.0000 C   0  0  0  0  0  0  0  0  0  0  0  0
    2.3036   -0.6680    0.0000 C   0  0  0  0  0  0  0  0  0  0  0  0
    0.0000   -1.9983    0.0000 C   0  0  0  0  0  0  0  0  0  0  0  0
    1.1518   -0.0000    0.0000 N   0  0  0  0  0  0  0  0  0  0  0  0
    0.0000   -0.6680    0.0000 C   0  0  0  0  0  0  0  0  0  0  0  0
  1  2  1  0  0  0  0 
  2  3  2  0  0  0  0 
  2  4  1  0  0  0  0 
  3  5  1  0  0  0  0 
  6  4  2  0  0  0  0 
  5  7  2  0  0  0  0 
  5  8  1  0  0  0  0 
  8  6  1  0  0  0  0 
  7  9  1  0  0  0  0 
 10  8  2  0  0  0  0 
  9 11  2  0  0  0  0 
 11 10  1  0  0  0  0 
M  END
> <Name>
6-METHYLQUINOLINE

> <Source>
DSSTox2DMolFile

> <Tox>
-2.193

> <CAS>
91-62-3

$$$$

  CDK

 11 12  0  0  0  0  0  0  0  0999 V2000
   -3.4573   -0.7366   -0.0006 C   0  0  0  0  0  0  0  0  0  0  0  0
   -2.0632   -0.2087    0.0004 C   0  0  0  0  0  0  0  0  0  0  0  0
   -1.0469   -1.0676    0.0004 N   0  0  0  0  0  0  0  0  0  0  0  0
   -1.8510    1.2051    0.0003 C   0  0  0  0  0  0  0  0  0  0  0  0
    0.2594   -0.5885    0.0002 C   0  0  0  0  0  0  0  0  0  0  0  0
   -0.5787    1.6995    0.0001 C   0  0  0  0  0  0  0  0  0  0  0  0
    0.5237    0.7979    0.0000 C   0  0  0  0  0  0  0  0  0  0  0  0
    1.3371   -1.5165    0.0002 C   0  0  0  0  0  0  0  0  0  0  0  0
    1.8683    1.2463   -0.0002 C   0  0  0  0  0  0  0  0  0  0  0  0
    2.6259   -1.0505   -0.0001 C   0  0  0  0  0  0  0  0  0  0  0  0
    2.8937    0.3374   -0.0003 C   0  0  0  0  0  0  0  0  0  0  0  0
  1  2  1  0  0  0  0 
  3  2  2  0  0  0  0 
  2  4  1  0  0  0  0 
  3  5  1  0  0  0  0 
  4  6  2  0  0  0  0 
  7  5  1  0  0  0  0 
  8  5  2  0  0  0  0 
  6  7  1  0  0  0  0 
  7  9  2  0  0  0  0 
 10  8  1  0  0  0  0 
  9 11  1  0  0  0  0 
 11 10  2  0  0  0  0 
M  END
> <Name>
2-METHYLQUINOLINE

> <Source>
DougDB3DMolFile

> <Tox>
-2.024

> <CAS>
91-63-4

$$$$

  CDK

 11 12  0  0  0  0  0  0  0  0999 V2000
    0.0000   -2.6606    0.0000 O   0  0  0  0  0  0  0  0  0  0  0  0
    1.1518   -1.9983    0.0000 C   0  0  0  0  0  0  0  0  0  0  0  0
    2.3036   -2.6606    0.0000 O   0  0  0  0  0  0  0  0  0  0  0  0
    1.1518   -0.6680    0.0000 C   0  0  0  0  0  0  0  0  0  0  0  0
    3.4554   -1.9983    0.0000 C   0  0  0  0  0  0  0  0  0  0  0  0
    2.3036   -0.0000    0.0000 C   0  0  0  0  0  0  0  0  0  0  0  0
    3.4554   -0.6680    0.0000 C   0  0  0  0  0  0  0  0  0  0  0  0
    4.6071   -2.6606    0.0000 C   0  0  0  0  0  0  0  0  0  0  0  0
    4.6071   -0.0000    0.0000 C   0  0  0  0  0  0  0  0  0  0  0  0
    5.7589   -1.9983    0.0000 C   0  0  0  0  0  0  0  0  0  0  0  0
    5.7589   -0.6680    0.0000 C   0  0  0  0  0  0  0  0  0  0  0  0
  1  2  2  0  0  0  0 
  2  3  1  0  0  0  0 
  2  4  1  0  0  0  0 
  3  5  1  0  0  0  0 
  6  4  2  0  0  0  0 
  5  7  2  0  0  0  0 
  5  8  1  0  0  0  0 
  7  6  1  0  0  0  0 
  7  9  1  0  0  0  0 
 10  8  2  0  0  0  0 
  9 11  2  0  0  0  0 
 11 10  1  0  0  0  0 
M  END
> <Name>
COUMARIN

> <Source>
DSSTox2DMolFile

> <Tox>
-3.009

> <CAS>
91-64-5

$$$$

  CDK

 11 11  0  0  0  0  0  0  0  0999 V2000
    0.0000   -2.3044    0.0000 C   0  0  0  0  0  0  0  0  0  0  0  0
    1.3288   -2.3044    0.0000 C   0  0  0  0  0  0  0  0  0  0  0  0
    1.9932   -1.1552    0.0000 N   0  0  0  0  0  0  0  0  0  0  0  0
    1.3288   -0.0000    0.0000 C   0  0  0  0  0  0  0  0  0  0  0  0
    3.3279   -1.1552    0.0000 C   0  0  0  0  0  0  0  0  0  0  0  0
    0.0000   -0.0000    0.0000 C   0  0  0  0  0  0  0  0  0  0  0  0
    3.9923   -0.0000    0.0000 C   0  0  0  0  0  0  0  0  0  0  0  0
    3.9923   -2.3044    0.0000 C   0  0  0  0  0  0  0  0  0  0  0  0
    5.3211   -0.0000    0.0000 C   0  0  0  0  0  0  0  0  0  0  0  0
    5.3211   -2.3044    0.0000 C   0  0  0  0  0  0  0  0  0  0  0  0
    5.9855   -1.1552    0.0000 C   0  0  0  0  0  0  0  0  0  0  0  0
  1  2  1  0  0  0  0 
  2  3  1  0  0  0  0 
  3  4  1  0  0  0  0 
  3  5  1  0  0  0  0 
  4  6  1  0  0  0  0 
  5  7  2  0  0  0  0 
  5  8  1  0  0  0  0 
  7  9  1  0  0  0  0 
 10  8  2  0  0  0  0 
  9 11  2  0  0  0  0 
 11 10  1  0  0  0  0 
M  END
> <Name>
N,N-DIETHYLANILINE

> <Source>
DSSTox2DMolFile

> <Tox>
-0.866

> <CAS>
91-66-7

$$$$

  CDK

 18 20  0  0  0  0  0  0  0  0999 V2000
    2.6694   -1.1576    0.0000 C   0  0  0  0  0  0  0  0  0  0  0  0
    3.9998   -1.1576    0.0000 C   0  0  0  0  0  0  0  0  0  0  0  0
    2.0129   -0.0346    0.0000 C   0  0  0  0  0  0  0  0  0  0  0  0
    2.0129   -2.3411    0.0000 C   0  0  0  0  0  0  0  0  0  0  0  0
    4.6736   -2.3066    0.0000 C   0  0  0  0  0  0  0  0  0  0  0  0
    4.6736   -0.0000    0.0000 C   0  0  0  0  0  0  0  0  0  0  0  0
    0.6738   -0.0346    0.0000 C   0  0  0  0  0  0  0  0  0  0  0  0
    0.6738   -2.3411    0.0000 C   0  0  0  0  0  0  0  0  0  0  0  0
    5.9867   -2.3066    0.0000 C   0  0  0  0  0  0  0  0  0  0  0  0
    5.9867   -0.0000    0.0000 C   0  0  0  0  0  0  0  0  0  0  0  0
    0.0000   -1.1835    0.0000 C   0  0  0  0  0  0  0  0  0  0  0  0
    6.6519   -1.1576    0.0000 C   0  0  0  0  0  0  0  0  0  0  0  0
    6.6519   -3.4555    0.0000 C   0  0  0  0  0  0  0  0  0  0  0  0
    5.9867   -4.6132    0.0000 C   0  0  0  0  0  0  0  0  0  0  0  0
    7.9650   -3.4555    0.0000 C   0  0  0  0  0  0  0  0  0  0  0  0
    6.6519   -5.7621    0.0000 C   0  0  0  0  0  0  0  0  0  0  0  0
    8.6389   -4.6132    0.0000 C   0  0  0  0  0  0  0  0  0  0  0  0
    7.9996   -5.7621    0.0000 C   0  0  0  0  0  0  0  0  0  0  0  0
  1  2  1  0  0  0  0 
  1  3  2  0  0  0  0 
  1  4  1  0  0  0  0 
  2  5  2  0  0  0  0 
  2  6  1  0  0  0  0 
  3  7  1  0  0  0  0 
  4  8  2  0  0  0  0 
  5  9  1  0  0  0  0 
  6 10  2  0  0  0  0 
  7 11  2  0  0  0  0 
  8 11  1  0  0  0  0 
  9 12  2  0  0  0  0 
  9 13  1  0  0  0  0 
 10 12  1  0  0  0  0 
 13 14  2  0  0  0  0 
 13 15  1  0  0  0  0 
 14 16  1  0  0  0  0 
 15 17  2  0  0  0  0 
 16 18  2  0  0  0  0 
 17 18  1  0  0  0  0 
M  END
> <Name>
m-TERPHENYL

> <Source>
DSSTox2DMolFile

> <Tox>
-4.757

> <CAS>
92-06-8

$$$$

  CDK

 18 21  0  0  0  0  0  0  0  0999 V2000
   -3.5466    1.8729    4.6498 C   0  0  0  0  0  0  0  0  0  0  0  0
   -4.1904    0.7998    4.0019 C   0  0  0  0  0  0  0  0  0  0  0  0
   -4.1655    2.4793    5.7561 C   0  0  0  0  0  0  0  0  0  0  0  0
   -2.2993    2.3138    4.1759 C   0  0  0  0  0  0  0  0  0  0  0  0
   -5.4375    0.3586    4.4759 C   0  0  0  0  0  0  0  0  0  0  0  0
   -3.5716    0.1935    2.8954 C   0  0  0  0  0  0  0  0  0  0  0  0
   -5.4122    2.0390    6.2309 C   0  0  0  0  0  0  0  0  0  0  0  0
   -1.6798    1.7084    3.0700 C   0  0  0  0  0  0  0  0  0  0  0  0
   -6.0569    0.9639    5.5820 C   0  0  0  0  0  0  0  0  0  0  0  0
   -2.3248    0.6336    2.4209 C   0  0  0  0  0  0  0  0  0  0  0  0
   -6.0313    2.6448    7.3369 C   0  0  0  0  0  0  0  0  0  0  0  0
   -0.4330    2.1490    2.5958 C   0  0  0  0  0  0  0  0  0  0  0  0
   -7.3036    0.5231    6.0563 C   0  0  0  0  0  0  0  0  0  0  0  0
   -1.7057    0.0278    1.3148 C   0  0  0  0  0  0  0  0  0  0  0  0
   -7.2697    2.1952    7.7954 C   0  0  0  0  0  0  0  0  0  0  0  0
    0.1683    1.5366    1.4960 C   0  0  0  0  0  0  0  0  0  0  0  0
   -7.9050    1.1354    7.1560 C   0  0  0  0  0  0  0  0  0  0  0  0
   -0.4674    0.4773    0.8563 C   0  0  0  0  0  0  0  0  0  0  0  0
  1  2  1  0  0  0  0 
  1  3  2  0  0  0  0 
  1  4  1  0  0  0  0 
  2  5  2  0  0  0  0 
  2  6  1  0  0  0  0 
  7  3  1  0  0  0  0 
  8  4  2  0  0  0  0 
  9  5  1  0  0  0  0 
 10  6  2  0  0  0  0 
  7  9  1  0  0  0  0 
  7 11  2  0  0  0  0 
  8 10  1  0  0  0  0 
  8 12  1  0  0  0  0 
  9 13  2  0  0  0  0 
 10 14  1  0  0  0  0 
 11 15  1  0  0  0  0 
 12 16  2  0  0  0  0 
 13 17  1  0  0  0  0 
 14 18  2  0  0  0  0 
 15 17  2  0  0  0  0 
 16 18  1  0  0  0  0 
M  END
> <Name>
TETRACENE

> <Source>
Chemidplus3DMolFile

> <Tox>
-8.604

> <CAS>
92-24-0

$$$$

  CDK

 12 13  0  0  0  0  0  0  0  0999 V2000
    1.9961   -2.3022    0.0000 C   0  0  0  0  0  0  0  0  0  0  0  0
    0.6654   -2.3022    0.0000 C   0  0  0  0  0  0  0  0  0  0  0  0
    2.6615   -1.1511    0.0000 C   0  0  0  0  0  0  0  0  0  0  0  0
    0.0000   -1.1511    0.0000 C   0  0  0  0  0  0  0  0  0  0  0  0
    1.9961   -0.0000    0.0000 C   0  0  0  0  0  0  0  0  0  0  0  0
    3.9922   -1.1511    0.0000 C   0  0  0  0  0  0  0  0  0  0  0  0
    0.6654   -0.0000    0.0000 C   0  0  0  0  0  0  0  0  0  0  0  0
    4.6575   -0.0000    0.0000 C   0  0  0  0  0  0  0  0  0  0  0  0
    4.6575   -2.3022    0.0000 C   0  0  0  0  0  0  0  0  0  0  0  0
    5.9883   -0.0000    0.0000 C   0  0  0  0  0  0  0  0  0  0  0  0
    5.9883   -2.3022    0.0000 C   0  0  0  0  0  0  0  0  0  0  0  0
    6.6536   -1.1511    0.0000 C   0  0  0  0  0  0  0  0  0  0  0  0
  1  2  1  0  0  0  0 
  1  3  1  0  0  0  0 
  2  4  1  0  0  0  0 
  5  3  1  0  0  0  0 
  3  6  1  0  0  0  0 
  4  7  1  0  0  0  0 
  7  5  1  0  0  0  0 
  6  8  1  0  0  0  0 
  6  9  1  0  0  0  0 
  8 10  1  0  0  0  0 
 11  9  1  0  0  0  0 
 10 12  1  0  0  0  0 
 12 11  1  0  0  0  0 
M  END
> <Name>
DICYCLOHEXYL

> <Source>
DSSTox2DMolFile

> <Tox>
-0.967

> <CAS>
92-51-3

$$$$

  CDK

 12 13  0  0  0  0  0  0  0  0999 V2000
    1.9961   -0.0000    0.0000 C   0  0  0  0  0  0  0  0  0  0  0  0
    2.6615   -1.1511    0.0000 C   0  0  0  0  0  0  0  0  0  0  0  0
    0.6654   -0.0000    0.0000 C   0  0  0  0  0  0  0  0  0  0  0  0
    1.9961   -2.3022    0.0000 C   0  0  0  0  0  0  0  0  0  0  0  0
    3.9922   -1.1511    0.0000 C   0  0  0  0  0  0  0  0  0  0  0  0
    0.0000   -1.1511    0.0000 C   0  0  0  0  0  0  0  0  0  0  0  0
    0.6654   -2.3022    0.0000 C   0  0  0  0  0  0  0  0  0  0  0  0
    4.6575   -0.0000    0.0000 C   0  0  0  0  0  0  0  0  0  0  0  0
    4.6575   -2.3022    0.0000 C   0  0  0  0  0  0  0  0  0  0  0  0
    5.9883   -0.0000    0.0000 C   0  0  0  0  0  0  0  0  0  0  0  0
    5.9883   -2.3022    0.0000 C   0  0  0  0  0  0  0  0  0  0  0  0
    6.6536   -1.1511    0.0000 C   0  0  0  0  0  0  0  0  0  0  0  0
  1  2  2  0  0  0  0 
  1  3  1  0  0  0  0 
  2  4  1  0  0  0  0 
  2  5  1  0  0  0  0 
  6  3  2  0  0  0  0 
  4  7  2  0  0  0  0 
  5  8  2  0  0  0  0 
  5  9  1  0  0  0  0 
  7  6  1  0  0  0  0 
  8 10  1  0  0  0  0 
 11  9  2  0  0  0  0 
 10 12  2  0  0  0  0 
 12 11  1  0  0  0  0 
M  END
> <Name>
BIPHENYL

> <Source>
DSSTox2DMolFile

> <Tox>
-2.049

> <CAS>
92-52-4

$$$$

  CDK

 12 13  0  0  0  0  0  0  0  0999 V2000
    3.0258    0.8573    0.0000 C   0  0  0  0  0  0  0  0  0  0  0  0
    3.5301    1.7146    0.0000 C   0  0  0  0  0  0  0  0  0  0  0  0
    3.5301    0.0000    0.0000 C   0  0  0  0  0  0  0  0  0  0  0  0
    2.0172    0.8573    0.0000 N   0  0  0  0  0  0  0  0  0  0  0  0
    4.5387    1.7146    0.0000 C   0  0  0  0  0  0  0  0  0  0  0  0
    4.5387    0.0000    0.0000 C   0  0  0  0  0  0  0  0  0  0  0  0
    1.5129    0.0000    0.0000 C   0  0  0  0  0  0  0  0  0  0  0  0
    1.5129    1.7146    0.0000 C   0  0  0  0  0  0  0  0  0  0  0  0
    5.0430    0.8573    0.0000 C   0  0  0  0  0  0  0  0  0  0  0  0
    0.5043    0.0000    0.0000 C   0  0  0  0  0  0  0  0  0  0  0  0
    0.5043    1.7146    0.0000 C   0  0  0  0  0  0  0  0  0  0  0  0
    0.0000    0.8573    0.0000 N   0  0  0  0  0  0  0  0  0  0  0  0
  2  1  2  0  0  0  0 
  1  3  1  0  0  0  0 
  1  4  1  0  0  0  0 
  5  2  1  0  0  0  0 
  3  6  2  0  0  0  0 
  7  4  1  0  0  0  0 
  4  8  1  0  0  0  0 
  9  5  2  0  0  0  0 
  6  9  1  0  0  0  0 
 10  7  1  0  0  0  0 
  8 11  1  0  0  0  0 
 12 10  1  0  0  0  0 
 11 12  1  0  0  0  0 
M  END
> <Name>
1-PHENYLPIPERAZINE

> <Source>
NIST2DMolFile

> <Tox>
-2.264

> <CAS>
92-54-6

$$$$

  CDK

 18 20  0  0  0  0  0  0  0  0999 V2000
    2.6689   -1.1696    0.0000 C   0  0  0  0  0  0  0  0  0  0  0  0
    3.9661   -1.1696    0.0000 C   0  0  0  0  0  0  0  0  0  0  0  0
    1.9884   -0.0319    0.0000 C   0  0  0  0  0  0  0  0  0  0  0  0
    1.9884   -2.3393    0.0000 C   0  0  0  0  0  0  0  0  0  0  0  0
    4.6466   -2.3074    0.0000 C   0  0  0  0  0  0  0  0  0  0  0  0
    4.6466   -0.0000    0.0000 C   0  0  0  0  0  0  0  0  0  0  0  0
    0.6699   -0.0319    0.0000 C   0  0  0  0  0  0  0  0  0  0  0  0
    0.6699   -2.3393    0.0000 C   0  0  0  0  0  0  0  0  0  0  0  0
    5.9545   -2.3074    0.0000 C   0  0  0  0  0  0  0  0  0  0  0  0
    5.9545   -0.0000    0.0000 C   0  0  0  0  0  0  0  0  0  0  0  0
    0.0000   -1.1696    0.0000 C   0  0  0  0  0  0  0  0  0  0  0  0
    6.6350   -1.1696    0.0000 C   0  0  0  0  0  0  0  0  0  0  0  0
    7.9641   -1.1696    0.0000 C   0  0  0  0  0  0  0  0  0  0  0  0
    8.6127   -2.3074    0.0000 C   0  0  0  0  0  0  0  0  0  0  0  0
    8.6127   -0.0000    0.0000 C   0  0  0  0  0  0  0  0  0  0  0  0
    9.9631   -2.3074    0.0000 C   0  0  0  0  0  0  0  0  0  0  0  0
    9.9631   -0.0000    0.0000 C   0  0  0  0  0  0  0  0  0  0  0  0
   10.6330   -1.1377    0.0000 C   0  0  0  0  0  0  0  0  0  0  0  0
  1  2  1  0  0  0  0 
  1  3  2  0  0  0  0 
  1  4  1  0  0  0  0 
  2  5  2  0  0  0  0 
  2  6  1  0  0  0  0 
  3  7  1  0  0  0  0 
  4  8  2  0  0  0  0 
  5  9  1  0  0  0  0 
  6 10  2  0  0  0  0 
  7 11  2  0  0  0  0 
  8 11  1  0  0  0  0 
  9 12  2  0  0  0  0 
 10 12  1  0  0  0  0 
 12 13  1  0  0  0  0 
 13 14  2  0  0  0  0 
 13 15  1  0  0  0  0 
 14 16  1  0  0  0  0 
 15 17  2  0  0  0  0 
 16 18  2  0  0  0  0 
 17 18  1  0  0  0  0 
M  END
> <Name>
1,1':4',1''-TERPHENYL

> <Source>
DSSTox2DMolFile

> <Tox>
-7.000

> <CAS>
92-94-4

$$$$

  CDK

 13 13  0  0  0  0  0  0  0  0999 V2000
    1.9817    3.4681    0.0000 C   0  0  0  0  0  0  0  0  0  0  0  0
    2.9726    3.4681    0.0000 C   0  0  0  0  0  0  0  0  0  0  0  0
    1.4863    2.5763    0.0000 C   0  0  0  0  0  0  0  0  0  0  0  0
    3.4681    2.5763    0.0000 C   0  0  0  0  0  0  0  0  0  0  0  0
    1.9322    1.7340    0.0000 C   0  0  0  0  0  0  0  0  0  0  0  0
    0.5450    2.6258    0.0000 C   0  0  0  0  0  0  0  0  0  0  0  0
    2.9726    1.7340    0.0000 C   0  0  0  0  0  0  0  0  0  0  0  0
    4.4589    2.5763    0.0000 O   0  0  0  0  0  0  0  0  0  0  0  0
    0.0000    1.7340    0.0000 O   0  0  0  0  0  0  0  0  0  0  0  0
    0.0495    3.4681    0.0000 O   0  0  0  0  0  0  0  0  0  0  0  0
    3.4681    0.8918    0.0000 O   0  0  0  0  0  0  0  0  0  0  0  0
    4.9544    3.4681    0.0000 C   0  0  0  0  0  0  0  0  0  0  0  0
    2.9231    0.0000    0.0000 C   0  0  0  0  0  0  0  0  0  0  0  0
  2  1  2  0  0  0  0 
  1  3  1  0  0  0  0 
  4  2  1  0  0  0  0 
  3  5  2  0  0  0  0 
  3  6  1  0  0  0  0 
  7  4  2  0  0  0  0 
  4  8  1  0  0  0  0 
  5  7  1  0  0  0  0 
  6  9  1  0  0  0  0 
  6 10  2  0  0  0  0 
  7 11  1  0  0  0  0 
  8 12  1  0  0  0  0 
 11 13  1  0  0  0  0 
M  END
> <Name>
3,4-DIMETHOXYBENZOIC ACID

> <Source>
NIST2DMolFile

> <Tox>
-3.607

> <CAS>
93-07-2

$$$$

  CDK

 13 14  0  0  0  0  0  0  0  0999 V2000
    1.7842    0.5098    0.0000 C   0  0  0  0  0  0  0  0  0  0  0  0
    1.7842    1.4783    0.0000 C   0  0  0  0  0  0  0  0  0  0  0  0
    0.9176    0.0000    0.0000 C   0  0  0  0  0  0  0  0  0  0  0  0
    2.6508    0.0000    0.0000 C   0  0  0  0  0  0  0  0  0  0  0  0
    0.9176    1.9881    0.0000 C   0  0  0  0  0  0  0  0  0  0  0  0
    2.6508    1.9881    0.0000 C   0  0  0  0  0  0  0  0  0  0  0  0
    0.0000    0.5098    0.0000 C   0  0  0  0  0  0  0  0  0  0  0  0
    3.4664    0.5098    0.0000 C   0  0  0  0  0  0  0  0  0  0  0  0
    0.0000    1.4783    0.0000 C   0  0  0  0  0  0  0  0  0  0  0  0
    3.4664    1.4783    0.0000 C   0  0  0  0  0  0  0  0  0  0  0  0
    4.3840    1.9881    0.0000 C   0  0  0  0  0  0  0  0  0  0  0  0
    5.2506    1.5293    0.0000 C   0  0  0  0  0  0  0  0  0  0  0  0
    4.3840    3.0076    0.0000 O   0  0  0  0  0  0  0  0  0  0  0  0
  1  2  1  0  0  0  0 
  1  3  2  0  0  0  0 
  4  1  1  0  0  0  0 
  5  2  2  0  0  0  0 
  2  6  1  0  0  0  0 
  3  7  1  0  0  0  0 
  8  4  2  0  0  0  0 
  9  5  1  0  0  0  0 
  6 10  2  0  0  0  0 
  7  9  2  0  0  0  0 
 10  8  1  0  0  0  0 
 10 11  1  0  0  0  0 
 11 12  1  0  0  0  0 
 11 13  2  0  0  0  0 
M  END
> <Name>
1-(2-NAPHTHALENYL)ETHANONE

> <Source>
NIST2DMolFile

> <Tox>
-3.214

> <CAS>
93-08-3

$$$$

  CDK

 13 14  0  0  0  0  0  0  0  0999 V2000
   -0.4089    0.9050   -0.0006 C   0  0  0  0  0  0  0  0  0  0  0  0
   -1.3733   -0.0772    0.0004 C   0  0  0  0  0  0  0  0  0  0  0  0
    0.9673    0.5569   -0.0005 C   0  0  0  0  0  0  0  0  0  0  0  0
   -0.9969   -1.4471    0.0018 C   0  0  0  0  0  0  0  0  0  0  0  0
   -2.7995    0.3206    0.0003 C   0  0  0  0  0  0  0  0  0  0  0  0
    1.3387   -0.8030    0.0008 C   0  0  0  0  0  0  0  0  0  0  0  0
    1.9784    1.5562   -0.0017 C   0  0  0  0  0  0  0  0  0  0  0  0
    0.3250   -1.7987    0.0020 C   0  0  0  0  0  0  0  0  0  0  0  0
   -3.2724    1.4464    0.0052 O   0  0  0  0  0  0  0  0  0  0  0  0
   -3.7182   -0.6758   -0.0061 O   0  0  0  0  0  0  0  0  0  0  0  0
    2.7171   -1.1477    0.0009 C   0  0  0  0  0  0  0  0  0  0  0  0
    3.2992    1.1980   -0.0015 C   0  0  0  0  0  0  0  0  0  0  0  0
    3.6718   -0.1668   -0.0003 C   0  0  0  0  0  0  0  0  0  0  0  0
  1  2  1  0  0  0  0 
  1  3  2  0  0  0  0 
  2  4  2  0  0  0  0 
  2  5  1  0  0  0  0 
  6  3  1  0  0  0  0 
  7  3  1  0  0  0  0 
  4  8  1  0  0  0  0 
  5  9  2  0  0  0  0 
  5 10  1  0  0  0  0 
  8  6  2  0  0  0  0 
  6 11  1  0  0  0  0 
 12  7  2  0  0  0  0 
 11 13  2  0  0  0  0 
 13 12  1  0  0  0  0 
M  END
> <Name>
2-NAPHTHOIC ACID

> <Source>
DougDB3DMolFile

> <Tox>
-5.178

> <CAS>
93-09-4

$$$$

  CDK

 13 13  0  0  0  0  0  0  0  0999 V2000
    1.9945   -0.0000    0.0000 O   0  0  0  0  0  0  0  0  0  0  0  0
    0.6622   -0.0000    0.0000 C   0  0  0  0  0  0  0  0  0  0  0  0
    2.6567   -1.1488    0.0000 C   0  0  0  0  0  0  0  0  0  0  0  0
    3.9890   -1.1488    0.0000 C   0  0  0  0  0  0  0  0  0  0  0  0
    1.9945   -2.3057    0.0000 C   0  0  0  0  0  0  0  0  0  0  0  0
    4.6512   -2.3057    0.0000 C   0  0  0  0  0  0  0  0  0  0  0  0
    2.6567   -3.4545    0.0000 C   0  0  0  0  0  0  0  0  0  0  0  0
    0.6622   -2.3057    0.0000 O   0  0  0  0  0  0  0  0  0  0  0  0
    5.9836   -2.3057    0.0000 C   0  0  0  0  0  0  0  0  0  0  0  0
    3.9890   -3.4545    0.0000 C   0  0  0  0  0  0  0  0  0  0  0  0
    0.0000   -3.4545    0.0000 C   0  0  0  0  0  0  0  0  0  0  0  0
    6.6457   -3.4545    0.0000 C   0  0  0  0  0  0  0  0  0  0  0  0
    7.9781   -3.4545    0.0000 C   0  0  0  0  0  0  0  0  0  0  0  0
  1  2  1  0  0  0  0 
  1  3  1  0  0  0  0 
  3  4  2  0  0  0  0 
  3  5  1  0  0  0  0 
  4  6  1  0  0  0  0 
  7  5  2  0  0  0  0 
  5  8  1  0  0  0  0 
  6  9  1  0  0  0  0 
  6 10  2  0  0  0  0 
 10  7  1  0  0  0  0 
  8 11  1  0  0  0  0 
  9 12  1  0  0  0  0 
 12 13  2  0  0  0  0 
M  END
> <Name>
METHYLEUGENOL

> <Source>
DSSTox2DMolFile

> <Tox>
-1.921

> <CAS>
93-15-2

$$$$

  CDK

 15 15  0  0  0  0  0  0  0  0999 V2000
    1.0025    0.8521    0.0000 C   0  0  0  0  0  0  0  0  0  0  0  0
    1.5038    1.7043    0.0000 O   0  0  0  0  0  0  0  0  0  0  0  0
    1.5038    0.0000    0.0000 C   0  0  0  0  0  0  0  0  0  0  0  0
    0.0000    0.8521    0.0000 O   0  0  0  0  0  0  0  0  0  0  0  0
    2.5063    1.7043    0.0000 C   0  0  0  0  0  0  0  0  0  0  0  0
    3.0076    2.6066    0.0000 C   0  0  0  0  0  0  0  0  0  0  0  0
    3.0076    0.8521    0.0000 C   0  0  0  0  0  0  0  0  0  0  0  0
    2.5063    3.4587    0.0000 O   0  0  0  0  0  0  0  0  0  0  0  0
    4.0101    2.6066    0.0000 C   0  0  0  0  0  0  0  0  0  0  0  0
    4.0101    0.8521    0.0000 C   0  0  0  0  0  0  0  0  0  0  0  0
    3.0076    4.3109    0.0000 C   0  0  0  0  0  0  0  0  0  0  0  0
    4.5114    1.7043    0.0000 C   0  0  0  0  0  0  0  0  0  0  0  0
    5.5139    1.7043    0.0000 C   0  0  0  0  0  0  0  0  0  0  0  0
    6.0152    0.8521    0.0000 C   0  0  0  0  0  0  0  0  0  0  0  0
    7.0177    0.8521    0.0000 C   0  0  0  0  0  0  0  0  0  0  0  0
  1  2  1  0  0  0  0 
  1  3  1  0  0  0  0 
  1  4  2  0  0  0  0 
  2  5  1  0  0  0  0 
  6  5  2  0  0  0  0 
  5  7  1  0  0  0  0 
  6  8  1  0  0  0  0 
  9  6  1  0  0  0  0 
  7 10  2  0  0  0  0 
  8 11  1  0  0  0  0 
 12  9  2  0  0  0  0 
 10 12  1  0  0  0  0 
 12 13  1  0  0  0  0 
 13 14  1  0  0  0  0 
 14 15  2  0  0  0  0 
M  END
> <Name>
EUGENYL ACETATE

> <Source>
NIST2DMolFile

> <Tox>
-2.496

> <CAS>
93-28-7

$$$$

  CDK

 10 10  0  0  0  0  0  0  0  0999 V2000
    0.8749   -2.5391    4.8122 Br  0  0  0  0  0  0  0  0  0  0  0  0
    1.8297   -0.9344    4.1747 C   0  0  0  0  0  0  0  0  0  0  0  0
    1.8497   -0.9689    2.6836 C   0  0  0  0  0  0  0  0  0  0  0  0
    3.1845   -0.8869    4.8865 C   0  0  0  0  0  0  0  0  0  0  0  0
    0.7994   -0.4058    1.9588 C   0  0  0  0  0  0  0  0  0  0  0  0
    2.9185   -1.5646    2.0141 C   0  0  0  0  0  0  0  0  0  0  0  0
    4.1294    0.7574    4.4254 Br  0  0  0  0  0  0  0  0  0  0  0  0
    0.8178   -0.4385    0.5644 C   0  0  0  0  0  0  0  0  0  0  0  0
    2.9371   -1.5972    0.6197 C   0  0  0  0  0  0  0  0  0  0  0  0
    1.8867   -1.0341   -0.1051 C   0  0  0  0  0  0  0  0  0  0  0  0
  1  2  1  0  0  0  0 
  2  3  1  0  0  0  0 
  2  4  1  0  0  0  0 
  3  5  2  0  0  0  0 
  3  6  1  0  0  0  0 
  7  4  1  0  0  0  0 
  5  8  1  0  0  0  0 
  6  9  2  0  0  0  0 
  8 10  2  0  0  0  0 
  9 10  1  0  0  0  0 
M  END
> <Name>
(1,2-DIBROMOETHYL)BENZENE

> <Source>
Chemidplus3DMolFile

> <Tox>
-1.975

> <CAS>
93-52-7

$$$$

  CDK

 10 10  0  0  0  0  0  0  0  0999 V2000
   -2.1272   -0.1506    0.7168 C   0  0  0  0  0  0  0  0  0  0  0  0
   -1.3286    0.0395   -0.5672 C   0  0  0  0  0  0  0  0  0  0  0  0
   -2.9534   -1.0219    0.8473 O   0  0  0  0  0  0  0  0  0  0  0  0
   -1.7376    1.3509   -1.2190 C   0  0  0  0  0  0  0  0  0  0  0  0
    0.1388    0.0073   -0.2490 C   0  0  0  0  0  0  0  0  0  0  0  0
    0.9311   -1.0154   -0.7748 C   0  0  0  0  0  0  0  0  0  0  0  0
    0.7267    0.9789    0.5636 C   0  0  0  0  0  0  0  0  0  0  0  0
    2.2913   -1.0639   -0.4911 C   0  0  0  0  0  0  0  0  0  0  0  0
    2.0869    0.9270    0.8453 C   0  0  0  0  0  0  0  0  0  0  0  0
    2.8713   -0.0936    0.3187 C   0  0  0  0  0  0  0  0  0  0  0  0
  1  2  1  0  0  0  0 
  1  3  2  0  0  0  0 
  2  4  1  0  0  0  0 
  2  5  1  0  0  0  0 
  5  6  1  0  0  0  0 
  5  7  2  0  0  0  0 
  6  8  2  0  0  0  0 
  9  7  1  0  0  0  0 
  8 10  1  0  0  0  0 
 10  9  2  0  0  0  0 
M  END
> <Name>
Benzeneacetaldehyde, .alpha.-methyl-

> <Source>
DougDB3DMolFile

> <Tox>
-0.569

> <CAS>
93-53-8

$$$$

  CDK

 10 10  0  0  0  0  0  0  0  0999 V2000
    1.0084    0.0000    0.0000 C   0  0  0  0  0  0  0  0  0  0  0  0
    1.5126    0.8571    0.0000 C   0  0  0  0  0  0  0  0  0  0  0  0
    0.0000    0.0000    0.0000 C   0  0  0  0  0  0  0  0  0  0  0  0
    1.0084    1.7142    0.0000 O   0  0  0  0  0  0  0  0  0  0  0  0
    2.5209    0.8571    0.0000 C   0  0  0  0  0  0  0  0  0  0  0  0
    3.0251    1.7142    0.0000 C   0  0  0  0  0  0  0  0  0  0  0  0
    3.0251    0.0000    0.0000 C   0  0  0  0  0  0  0  0  0  0  0  0
    4.0335    1.7142    0.0000 C   0  0  0  0  0  0  0  0  0  0  0  0
    4.0335    0.0000    0.0000 C   0  0  0  0  0  0  0  0  0  0  0  0
    4.5377    0.8571    0.0000 C   0  0  0  0  0  0  0  0  0  0  0  0
  1  2  1  0  0  0  0 
  1  3  1  0  0  0  0 
  2  4  2  0  0  0  0 
  2  5  1  0  0  0  0 
  6  5  2  0  0  0  0 
  5  7  1  0  0  0  0 
  8  6  1  0  0  0  0 
  7  9  2  0  0  0  0 
 10  8  2  0  0  0  0 
  9 10  1  0  0  0  0 
M  END
> <Name>
PROPIOPHENONE

> <Source>
NIST2DMolFile

> <Tox>
-0.770

> <CAS>
93-55-0

$$$$

  CDK

 10 10  0  0  0  0  0  0  0  0999 V2000
    3.9889   -2.3040    0.0000 C   0  0  0  0  0  0  0  0  0  0  0  0
    4.6545   -3.4536    0.0000 O   0  0  0  0  0  0  0  0  0  0  0  0
    4.6545   -1.1497    0.0000 O   0  0  0  0  0  0  0  0  0  0  0  0
    2.6577   -2.3040    0.0000 C   0  0  0  0  0  0  0  0  0  0  0  0
    3.9889   -0.0000    0.0000 C   0  0  0  0  0  0  0  0  0  0  0  0
    1.9968   -3.4536    0.0000 C   0  0  0  0  0  0  0  0  0  0  0  0
    1.9968   -1.1497    0.0000 C   0  0  0  0  0  0  0  0  0  0  0  0
    0.6656   -3.4536    0.0000 C   0  0  0  0  0  0  0  0  0  0  0  0
    0.6656   -1.1497    0.0000 C   0  0  0  0  0  0  0  0  0  0  0  0
    0.0000   -2.3040    0.0000 C   0  0  0  0  0  0  0  0  0  0  0  0
  1  2  2  0  0  0  0 
  1  3  1  0  0  0  0 
  1  4  1  0  0  0  0 
  3  5  1  0  0  0  0 
  4  6  2  0  0  0  0 
  4  7  1  0  0  0  0 
  6  8  1  0  0  0  0 
  9  7  2  0  0  0  0 
  8 10  2  0  0  0  0 
 10  9  1  0  0  0  0 
M  END
> <Name>
BENZOIC ACID, METHYL ESTER

> <Source>
DSSTox2DMolFile

> <Tox>
-0.420

> <CAS>
93-58-3

$$$$

  CDK

 18 18  0  0  0  0  0  0  0  0999 V2000
    6.6578   -2.3111    0.0000 O   0  0  0  0  0  0  0  0  0  0  0  0
    5.9872   -3.4606    0.0000 C   0  0  0  0  0  0  0  0  0  0  0  0
    7.9869   -2.3111    0.0000 C   0  0  0  0  0  0  0  0  0  0  0  0
    4.6580   -3.4606    0.0000 C   0  0  0  0  0  0  0  0  0  0  0  0
    8.6455   -1.1495    0.0000 C   0  0  0  0  0  0  0  0  0  0  0  0
    8.6455   -3.4606    0.0000 C   0  0  0  0  0  0  0  0  0  0  0  0
    3.9875   -2.3111    0.0000 O   0  0  0  0  0  0  0  0  0  0  0  0
    3.9875   -4.6101    0.0000 O   0  0  0  0  0  0  0  0  0  0  0  0
    9.9747   -1.1495    0.0000 C   0  0  0  0  0  0  0  0  0  0  0  0
    9.9747   -3.4606    0.0000 C   0  0  0  0  0  0  0  0  0  0  0  0
    7.9869   -4.6101    0.0000 Cl  0  0  0  0  0  0  0  0  0  0  0  0
    2.6583   -4.6101    0.0000 C   0  0  0  0  0  0  0  0  0  0  0  0
   10.6452   -0.0000    0.0000 Cl  0  0  0  0  0  0  0  0  0  0  0  0
   10.6452   -2.3111    0.0000 C   0  0  0  0  0  0  0  0  0  0  0  0
    1.9997   -3.4606    0.0000 C   0  0  0  0  0  0  0  0  0  0  0  0
   11.9744   -2.3111    0.0000 Cl  0  0  0  0  0  0  0  0  0  0  0  0
    0.6706   -3.4606    0.0000 C   0  0  0  0  0  0  0  0  0  0  0  0
    0.0000   -2.3111    0.0000 C   0  0  0  0  0  0  0  0  0  0  0  0
  1  2  1  0  0  0  0 
  1  3  1  0  0  0  0 
  2  4  1  0  0  0  0 
  3  5  2  0  0  0  0 
  3  6  1  0  0  0  0 
  4  7  2  0  0  0  0 
  4  8  1  0  0  0  0 
  5  9  1  0  0  0  0 
 10  6  2  0  0  0  0 
  6 11  1  0  0  0  0 
  8 12  1  0  0  0  0 
  9 13  1  0  0  0  0 
  9 14  2  0  0  0  0 
 14 10  1  0  0  0  0 
 12 15  1  0  0  0  0 
 14 16  1  0  0  0  0 
 15 17  1  0  0  0  0 
 17 18  1  0  0  0  0 
M  END
> <Name>
2,4,5-T, N-BUTYL ESTER

> <Source>
DSSTox2DMolFile

> <Tox>
-4.824

> <CAS>
93-79-8

$$$$

  CDK

 11 11  0  0  0  0  0  0  0  0999 V2000
   -0.7433    0.6990   -0.0003 C   0  0  0  0  0  0  0  0  0  0  0  0
    0.6597    0.2046   -0.0001 C   0  0  0  0  0  0  0  0  0  0  0  0
   -1.1090    1.8608   -0.0009 O   0  0  0  0  0  0  0  0  0  0  0  0
   -1.6902   -0.2836    0.0003 O   0  0  0  0  0  0  0  0  0  0  0  0
    1.6948    1.1450    0.0005 C   0  0  0  0  0  0  0  0  0  0  0  0
    0.9651   -1.1590   -0.0006 C   0  0  0  0  0  0  0  0  0  0  0  0
   -3.0672    0.0999    0.0004 C   0  0  0  0  0  0  0  0  0  0  0  0
    3.0192    0.7230    0.0007 C   0  0  0  0  0  0  0  0  0  0  0  0
    2.2926   -1.5726   -0.0005 C   0  0  0  0  0  0  0  0  0  0  0  0
   -3.8683   -1.1880    0.0003 C   0  0  0  0  0  0  0  0  0  0  0  0
    3.3198   -0.6349    0.0002 C   0  0  0  0  0  0  0  0  0  0  0  0
  1  2  1  0  0  0  0 
  1  3  2  0  0  0  0 
  1  4  1  0  0  0  0 
  2  5  1  0  0  0  0 
  2  6  2  0  0  0  0 
  4  7  1  0  0  0  0 
  5  8  2  0  0  0  0 
  9  6  1  0  0  0  0 
  7 10  1  0  0  0  0 
  8 11  1  0  0  0  0 
 11  9  2  0  0  0  0 
M  END
> <Name>
ETHYL BENZOATE

> <Source>
DougDB3DMolFile

> <Tox>
-0.573

> <CAS>
93-89-0

$$$$

  CDK

 17 18  0  0  0  0  0  0  0  0999 V2000
    3.4788   -1.3288    0.0000 C   0  0  0  0  0  0  0  0  0  0  0  0
    3.4788   -0.0000    0.0000 O   0  0  0  0  0  0  0  0  0  0  0  0
    2.2977   -2.0024    0.0000 C   0  0  0  0  0  0  0  0  0  0  0  0
    4.6138   -2.0024    0.0000 O   0  0  0  0  0  0  0  0  0  0  0  0
    1.1627   -1.3288    0.0000 C   0  0  0  0  0  0  0  0  0  0  0  0
    2.2977   -3.3219    0.0000 C   0  0  0  0  0  0  0  0  0  0  0  0
    5.7764   -1.3288    0.0000 C   0  0  0  0  0  0  0  0  0  0  0  0
    0.0000   -2.0024    0.0000 C   0  0  0  0  0  0  0  0  0  0  0  0
    1.1627   -3.9678    0.0000 C   0  0  0  0  0  0  0  0  0  0  0  0
    5.7764   -0.0000    0.0000 O   0  0  0  0  0  0  0  0  0  0  0  0
    6.9299   -2.0024    0.0000 C   0  0  0  0  0  0  0  0  0  0  0  0
    0.0000   -3.3219    0.0000 C   0  0  0  0  0  0  0  0  0  0  0  0
    8.0925   -1.3288    0.0000 C   0  0  0  0  0  0  0  0  0  0  0  0
    6.9299   -3.3219    0.0000 C   0  0  0  0  0  0  0  0  0  0  0  0
    9.2275   -2.0024    0.0000 C   0  0  0  0  0  0  0  0  0  0  0  0
    8.0649   -3.9955    0.0000 C   0  0  0  0  0  0  0  0  0  0  0  0
    9.2275   -3.3588    0.0000 C   0  0  0  0  0  0  0  0  0  0  0  0
  1  2  2  0  0  0  0 
  1  3  1  0  0  0  0 
  1  4  1  0  0  0  0 
  3  5  2  0  0  0  0 
  3  6  1  0  0  0  0 
  4  7  1  0  0  0  0 
  5  8  1  0  0  0  0 
  6  9  2  0  0  0  0 
  7 10  2  0  0  0  0 
  7 11  1  0  0  0  0 
  8 12  2  0  0  0  0 
  9 12  1  0  0  0  0 
 11 13  2  0  0  0  0 
 11 14  1  0  0  0  0 
 13 15  1  0  0  0  0 
 14 16  2  0  0  0  0 
 15 17  2  0  0  0  0 
 16 17  1  0  0  0  0 
M  END
> <Name>
BENZOIC ACID, ANHYDRIDE

> <Source>
DSSTox2DMolFile

> <Tox>
-3.928

> <CAS>
93-97-0

$$$$

  CDK

 14 14  0  0  0  0  0  0  0  0999 V2000
    0.0000    1.4962    0.0000 C   0  0  0  0  0  0  0  0  0  0  0  0
    0.8977    1.9950    0.0000 C   0  0  0  0  0  0  0  0  0  0  0  0
    0.0000    0.4987    0.0000 C   0  0  0  0  0  0  0  0  0  0  0  0
    1.7456    1.4962    0.0000 C   0  0  0  0  0  0  0  0  0  0  0  0
    0.8977    0.0000    0.0000 C   0  0  0  0  0  0  0  0  0  0  0  0
    1.7456    0.4987    0.0000 C   0  0  0  0  0  0  0  0  0  0  0  0
    2.5935    1.9950    0.0000 C   0  0  0  0  0  0  0  0  0  0  0  0
    3.4414    1.4962    0.0000 C   0  0  0  0  0  0  0  0  0  0  0  0
    2.5935    2.9925    0.0000 O   0  0  0  0  0  0  0  0  0  0  0  0
    4.3391    1.9950    0.0000 C   0  0  0  0  0  0  0  0  0  0  0  0
    5.1870    1.4962    0.0000 O   0  0  0  0  0  0  0  0  0  0  0  0
    4.3391    2.9925    0.0000 O   0  0  0  0  0  0  0  0  0  0  0  0
    6.0348    1.9950    0.0000 C   0  0  0  0  0  0  0  0  0  0  0  0
    6.9326    1.4962    0.0000 C   0  0  0  0  0  0  0  0  0  0  0  0
  1  2  2  0  0  0  0 
  3  1  1  0  0  0  0 
  2  4  1  0  0  0  0 
  5  3  2  0  0  0  0 
  4  6  2  0  0  0  0 
  4  7  1  0  0  0  0 
  6  5  1  0  0  0  0 
  7  8  1  0  0  0  0 
  7  9  2  0  0  0  0 
  8 10  1  0  0  0  0 
 10 11  1  0  0  0  0 
 10 12  2  0  0  0  0 
 11 13  1  0  0  0  0 
 13 14  1  0  0  0  0 
M  END
> <Name>
ETHYL BENZOYLACETATE

> <Source>
NIST2DMolFile

> <Tox>
-3.389

> <CAS>
94-02-0

$$$$

  CDK

 14 14  0  0  0  0  0  0  0  0999 V2000
   -0.6448    0.9003   -0.0725 C   0  0  0  0  0  0  0  0  0  0  0  0
   -1.9660    0.2175   -0.0438 C   0  0  0  0  0  0  0  0  0  0  0  0
   -0.4308    2.0773   -0.2935 O   0  0  0  0  0  0  0  0  0  0  0  0
    0.4035    0.0690    0.1959 O   0  0  0  0  0  0  0  0  0  0  0  0
   -3.0695    0.9077    0.4629 C   0  0  0  0  0  0  0  0  0  0  0  0
   -2.1172   -1.0821   -0.5305 C   0  0  0  0  0  0  0  0  0  0  0  0
    1.7211    0.6193    0.1855 C   0  0  0  0  0  0  0  0  0  0  0  0
   -4.3165    0.2935    0.4881 C   0  0  0  0  0  0  0  0  0  0  0  0
   -3.3690   -1.6871   -0.5051 C   0  0  0  0  0  0  0  0  0  0  0  0
    2.6777   -0.5399    0.4555 C   0  0  0  0  0  0  0  0  0  0  0  0
   -4.4671   -1.0023    0.0050 C   0  0  0  0  0  0  0  0  0  0  0  0
    4.1244   -0.0945    0.2340 C   0  0  0  0  0  0  0  0  0  0  0  0
    5.0849   -1.1774    0.6949 C   0  0  0  0  0  0  0  0  0  0  0  0
    4.3638    0.2420   -1.2296 C   0  0  0  0  0  0  0  0  0  0  0  0
  1  2  1  0  0  0  0 
  1  3  2  0  0  0  0 
  1  4  1  0  0  0  0 
  2  5  1  0  0  0  0 
  2  6  2  0  0  0  0 
  4  7  1  0  0  0  0 
  5  8  2  0  0  0  0 
  9  6  1  0  0  0  0 
  7 10  1  0  0  0  0 
  8 11  1  0  0  0  0 
 11  9  2  0  0  0  0 
 10 12  1  0  0  0  0 
 12 13  1  0  0  0  0 
 12 14  1  0  0  0  0 
M  END
> <Name>
1-BUTANOL, 3-METHYL-, BENZOATE

> <Source>
DougDB3DMolFile

> <Tox>
-0.848

> <CAS>
94-46-2

$$$$

  CDK

 13 13  0  0  0  0  0  0  0  0999 V2000
    2.3223   -2.6378    0.0000 C   0  0  0  0  0  0  0  0  0  0  0  0
    3.4470   -1.9905    0.0000 C   0  0  0  0  0  0  0  0  0  0  0  0
    1.1652   -1.9905    0.0000 C   0  0  0  0  0  0  0  0  0  0  0  0
    2.3223   -3.9810    0.0000 C   0  0  0  0  0  0  0  0  0  0  0  0
    4.6202   -2.6621    0.0000 O   0  0  0  0  0  0  0  0  0  0  0  0
    3.4470   -0.6554    0.0000 C   0  0  0  0  0  0  0  0  0  0  0  0
    1.1652   -0.6554    0.0000 C   0  0  0  0  0  0  0  0  0  0  0  0
    5.7692   -1.9905    0.0000 C   0  0  0  0  0  0  0  0  0  0  0  0
    2.3223   -0.0000    0.0000 C   0  0  0  0  0  0  0  0  0  0  0  0
    0.0000   -0.0000    0.0000 Cl  0  0  0  0  0  0  0  0  0  0  0  0
    6.9344   -2.6378    0.0000 C   0  0  0  0  0  0  0  0  0  0  0  0
    8.0915   -1.9905    0.0000 O   0  0  0  0  0  0  0  0  0  0  0  0
    6.9344   -3.9810    0.0000 O   0  0  0  0  0  0  0  0  0  0  0  0
  1  2  2  0  0  0  0 
  1  3  1  0  0  0  0 
  1  4  1  0  0  0  0 
  2  5  1  0  0  0  0 
  2  6  1  0  0  0  0 
  3  7  2  0  0  0  0 
  5  8  1  0  0  0  0 
  6  9  2  0  0  0  0 
  7  9  1  0  0  0  0 
  7 10  1  0  0  0  0 
 11  8  1  0  0  0  0 
 11 12  2  0  0  0  0 
 11 13  1  0  0  0  0 
M  END
> <Name>
2-METHYL-4-CHLOROPHENOXYACETIC ACID

> <Source>
DSSTox2DMolFile

> <Tox>
-5.229

> <CAS>
94-74-6

$$$$

  CDK

 17 17  0  0  0  0  0  0  0  0999 V2000
    3.9782   -2.3057    0.0000 C   0  0  0  0  0  0  0  0  0  0  0  0
    3.3092   -3.4645    0.0000 C   0  0  0  0  0  0  0  0  0  0  0  0
    3.3092   -1.1588    0.0000 C   0  0  0  0  0  0  0  0  0  0  0  0
    5.3042   -2.3057    0.0000 O   0  0  0  0  0  0  0  0  0  0  0  0
    1.9831   -3.4645    0.0000 C   0  0  0  0  0  0  0  0  0  0  0  0
    1.9831   -1.1588    0.0000 C   0  0  0  0  0  0  0  0  0  0  0  0
    3.9782   -0.0000    0.0000 Cl  0  0  0  0  0  0  0  0  0  0  0  0
    5.9613   -3.4645    0.0000 C   0  0  0  0  0  0  0  0  0  0  0  0
    1.3261   -2.3057    0.0000 C   0  0  0  0  0  0  0  0  0  0  0  0
    7.2874   -3.4645    0.0000 C   0  0  0  0  0  0  0  0  0  0  0  0
    0.0000   -2.3057    0.0000 Cl  0  0  0  0  0  0  0  0  0  0  0  0
    7.9683   -2.3057    0.0000 O   0  0  0  0  0  0  0  0  0  0  0  0
    7.9683   -4.6113    0.0000 O   0  0  0  0  0  0  0  0  0  0  0  0
    9.2944   -2.3057    0.0000 C   0  0  0  0  0  0  0  0  0  0  0  0
    9.9514   -3.4645    0.0000 C   0  0  0  0  0  0  0  0  0  0  0  0
   11.2775   -3.4645    0.0000 C   0  0  0  0  0  0  0  0  0  0  0  0
   11.9465   -4.6113    0.0000 C   0  0  0  0  0  0  0  0  0  0  0  0
  1  2  1  0  0  0  0 
  1  3  2  0  0  0  0 
  1  4  1  0  0  0  0 
  2  5  2  0  0  0  0 
  3  6  1  0  0  0  0 
  3  7  1  0  0  0  0 
  4  8  1  0  0  0  0 
  5  9  1  0  0  0  0 
  6  9  2  0  0  0  0 
  8 10  1  0  0  0  0 
  9 11  1  0  0  0  0 
 10 12  1  0  0  0  0 
 10 13  2  0  0  0  0 
 12 14  1  0  0  0  0 
 14 15  1  0  0  0  0 
 15 16  1  0  0  0  0 
 16 17  1  0  0  0  0 
M  END
> <Name>
2,4-D, BUTYL ESTER

> <Source>
DSSTox2DMolFile

> <Tox>
-4.210

> <CAS>
94-80-4

$$$$

  CDK

 10 10  0  0  0  0  0  0  0  0999 V2000
    0.0000    0.8997    0.0000 Cl  0  0  0  0  0  0  0  0  0  0  0  0
    0.4998    1.7493    0.0000 C   0  0  0  0  0  0  0  0  0  0  0  0
    1.4994    1.7493    0.0000 C   0  0  0  0  0  0  0  0  0  0  0  0
    1.9993    0.8497    0.0000 C   0  0  0  0  0  0  0  0  0  0  0  0
    1.9993    2.5990    0.0000 C   0  0  0  0  0  0  0  0  0  0  0  0
    1.4994    0.0000    0.0000 Cl  0  0  0  0  0  0  0  0  0  0  0  0
    2.9989    0.8497    0.0000 C   0  0  0  0  0  0  0  0  0  0  0  0
    2.9989    2.5990    0.0000 C   0  0  0  0  0  0  0  0  0  0  0  0
    3.4987    1.7493    0.0000 C   0  0  0  0  0  0  0  0  0  0  0  0
    4.4983    1.7493    0.0000 Cl  0  0  0  0  0  0  0  0  0  0  0  0
  1  2  1  0  0  0  0 
  2  3  1  0  0  0  0 
  3  4  2  0  0  0  0 
  5  3  1  0  0  0  0 
  4  6  1  0  0  0  0 
  4  7  1  0  0  0  0 
  8  5  2  0  0  0  0 
  7  9  2  0  0  0  0 
  9  8  1  0  0  0  0 
  9 10  1  0  0  0  0 
M  END
> <Name>
2,4-DICHLOROBENZYLCHLORIDE

> <Source>
NIST2DMolFile

> <Tox>
-1.485

> <CAS>
94-99-5

$$$$

  CDK

  9 10  0  0  0  0  0  0  0  0999 V2000
    2.6940    1.6014    2.0485 C   0  0  0  0  0  0  0  0  0  0  0  0
    2.1156    2.8416    2.4058 C   0  0  0  0  0  0  0  0  0  0  0  0
    1.8731    0.9814    0.9568 C   0  0  0  0  0  0  0  0  0  0  0  0
    3.8356    1.1448    2.6806 C   0  0  0  0  0  0  0  0  0  0  0  0
    0.9305    3.0526    1.5727 C   0  0  0  0  0  0  0  0  0  0  0  0
    2.6788    3.6284    3.3972 C   0  0  0  0  0  0  0  0  0  0  0  0
    0.7821    1.9981    0.7423 C   0  0  0  0  0  0  0  0  0  0  0  0
    4.3996    1.9412    3.6793 C   0  0  0  0  0  0  0  0  0  0  0  0
    3.8308    3.1618    4.0313 C   0  0  0  0  0  0  0  0  0  0  0  0
  1  2  2  0  0  0  0 
  1  3  1  0  0  0  0 
  4  1  1  0  0  0  0 
  5  2  1  0  0  0  0 
  2  6  1  0  0  0  0 
  3  7  1  0  0  0  0 
  8  4  2  0  0  0  0 
  7  5  2  0  0  0  0 
  6  9  2  0  0  0  0 
  9  8  1  0  0  0  0 
M  END
> <Name>
INDENE

> <Source>
NIST3DMolFile

> <Tox>
0.041

> <CAS>
95-13-6

$$$$

  CDK

  9 10  0  0  0  0  0  0  0  0999 V2000
    1.7560    0.5017    0.0000 C   0  0  0  0  0  0  0  0  0  0  0  0
    1.7560    1.5052    0.0000 C   0  0  0  0  0  0  0  0  0  0  0  0
    2.7093    0.2007    0.0000 C   0  0  0  0  0  0  0  0  0  0  0  0
    0.9031    0.0000    0.0000 C   0  0  0  0  0  0  0  0  0  0  0  0
    2.7093    1.8062    0.0000 S   0  0  0  0  0  0  0  0  0  0  0  0
    0.9031    2.0069    0.0000 C   0  0  0  0  0  0  0  0  0  0  0  0
    3.2612    1.0035    0.0000 C   0  0  0  0  0  0  0  0  0  0  0  0
    0.0000    0.5017    0.0000 C   0  0  0  0  0  0  0  0  0  0  0  0
    0.0000    1.5052    0.0000 C   0  0  0  0  0  0  0  0  0  0  0  0
  1  2  2  0  0  0  0 
  3  1  1  0  0  0  0 
  1  4  1  0  0  0  0 
  2  5  1  0  0  0  0 
  6  2  1  0  0  0  0 
  7  3  2  0  0  0  0 
  4  8  2  0  0  0  0 
  5  7  1  0  0  0  0 
  9  6  2  0  0  0  0 
  8  9  1  0  0  0  0 
M  END
> <Name>
BENZO(B)THIOPHENE

> <Source>
NIST2DMolFile

> <Tox>
-0.623

> <CAS>
95-15-8

$$$$

  CDK

  8  8  0  0  0  0  0  0  0  0999 V2000
    1.3289   -2.3027    0.0000 C   0  0  0  0  0  0  0  0  0  0  0  0
    1.9954   -1.1533    0.0000 C   0  0  0  0  0  0  0  0  0  0  0  0
    1.9954   -3.4560    0.0000 C   0  0  0  0  0  0  0  0  0  0  0  0
    0.0000   -2.3027    0.0000 C   0  0  0  0  0  0  0  0  0  0  0  0
    3.3243   -1.1533    0.0000 C   0  0  0  0  0  0  0  0  0  0  0  0
    1.3289   -0.0000    0.0000 Br  0  0  0  0  0  0  0  0  0  0  0  0
    3.3243   -3.4560    0.0000 C   0  0  0  0  0  0  0  0  0  0  0  0
    3.9907   -2.3027    0.0000 C   0  0  0  0  0  0  0  0  0  0  0  0
  1  2  2  0  0  0  0 
  1  3  1  0  0  0  0 
  1  4  1  0  0  0  0 
  2  5  1  0  0  0  0 
  2  6  1  0  0  0  0 
  7  3  2  0  0  0  0 
  5  8  2  0  0  0  0 
  8  7  1  0  0  0  0 
M  END
> <Name>
O-BROMOTOLUENE

> <Source>
DSSTox2DMolFile

> <Tox>
0.017

> <CAS>
95-46-5

$$$$

  CDK

  8  8  0  0  0  0  0  0  0  0999 V2000
    0.0000   -2.3027    0.0000 O   0  0  0  0  0  0  0  0  0  0  0  0
    1.3289   -2.3027    0.0000 C   0  0  0  0  0  0  0  0  0  0  0  0
    1.9954   -1.1533    0.0000 C   0  0  0  0  0  0  0  0  0  0  0  0
    1.9954   -3.4560    0.0000 C   0  0  0  0  0  0  0  0  0  0  0  0
    1.3289   -0.0000    0.0000 C   0  0  0  0  0  0  0  0  0  0  0  0
    3.3243   -1.1533    0.0000 C   0  0  0  0  0  0  0  0  0  0  0  0
    3.3243   -3.4560    0.0000 C   0  0  0  0  0  0  0  0  0  0  0  0
    3.9907   -2.3027    0.0000 C   0  0  0  0  0  0  0  0  0  0  0  0
  1  2  1  0  0  0  0 
  2  3  2  0  0  0  0 
  2  4  1  0  0  0  0 
  3  5  1  0  0  0  0 
  3  6  1  0  0  0  0 
  7  4  2  0  0  0  0 
  6  8  2  0  0  0  0 
  8  7  1  0  0  0  0 
M  END
> <Name>
O-CRESOL

> <Source>
DSSTox2DMolFile

> <Tox>
-0.524

> <CAS>
95-48-7

$$$$

  CDK

  8  8  0  0  0  0  0  0  0  0999 V2000
    1.1565   -1.9940    0.0000 C   0  0  0  0  0  0  0  0  0  0  0  0
    1.1565   -3.3299    0.0000 C   0  0  0  0  0  0  0  0  0  0  0  0
    2.3010   -1.3360    0.0000 C   0  0  0  0  0  0  0  0  0  0  0  0
    0.0000   -1.3360    0.0000 C   0  0  0  0  0  0  0  0  0  0  0  0
    2.3010   -3.9879    0.0000 C   0  0  0  0  0  0  0  0  0  0  0  0
    3.4575   -1.9940    0.0000 C   0  0  0  0  0  0  0  0  0  0  0  0
    2.3010   -0.0000    0.0000 Cl  0  0  0  0  0  0  0  0  0  0  0  0
    3.4575   -3.3299    0.0000 C   0  0  0  0  0  0  0  0  0  0  0  0
  1  2  1  0  0  0  0 
  1  3  2  0  0  0  0 
  1  4  1  0  0  0  0 
  2  5  2  0  0  0  0 
  3  6  1  0  0  0  0 
  3  7  1  0  0  0  0 
  5  8  1  0  0  0  0 
  6  8  2  0  0  0  0 
M  END
> <Name>
2-CHLOROTOLUENE

> <Source>
DSSTox2DMolFile

> <Tox>
0.535

> <CAS>
95-49-8

$$$$

  CDK

  8  8  0  0  0  0  0  0  0  0999 V2000
    0.0000   -2.3027    0.0000 N   0  0  0  0  0  0  0  0  0  0  0  0
    1.3289   -2.3027    0.0000 C   0  0  0  0  0  0  0  0  0  0  0  0
    1.9954   -1.1533    0.0000 C   0  0  0  0  0  0  0  0  0  0  0  0
    1.9954   -3.4560    0.0000 C   0  0  0  0  0  0  0  0  0  0  0  0
    3.3243   -1.1533    0.0000 C   0  0  0  0  0  0  0  0  0  0  0  0
    1.3289   -0.0000    0.0000 C   0  0  0  0  0  0  0  0  0  0  0  0
    3.3243   -3.4560    0.0000 C   0  0  0  0  0  0  0  0  0  0  0  0
    3.9907   -2.3027    0.0000 C   0  0  0  0  0  0  0  0  0  0  0  0
  1  2  1  0  0  0  0 
  2  3  2  0  0  0  0 
  2  4  1  0  0  0  0 
  3  5  1  0  0  0  0 
  3  6  1  0  0  0  0 
  7  4  2  0  0  0  0 
  5  8  2  0  0  0  0 
  8  7  1  0  0  0  0 
M  END
> <Name>
O-TOLUIDINE

> <Source>
DSSTox2DMolFile

> <Tox>
-0.585

> <CAS>
95-53-4

$$$$

  CDK

  8  8  0  0  0  0  0  0  0  0999 V2000
    0.0000   -2.3027    0.0000 N   0  0  0  0  0  0  0  0  0  0  0  0
    1.3289   -2.3027    0.0000 C   0  0  0  0  0  0  0  0  0  0  0  0
    1.9954   -1.1533    0.0000 C   0  0  0  0  0  0  0  0  0  0  0  0
    1.9954   -3.4560    0.0000 C   0  0  0  0  0  0  0  0  0  0  0  0
    1.3289   -0.0000    0.0000 N   0  0  0  0  0  0  0  0  0  0  0  0
    3.3243   -1.1533    0.0000 C   0  0  0  0  0  0  0  0  0  0  0  0
    3.3243   -3.4560    0.0000 C   0  0  0  0  0  0  0  0  0  0  0  0
    3.9907   -2.3027    0.0000 C   0  0  0  0  0  0  0  0  0  0  0  0
  1  2  1  0  0  0  0 
  2  3  2  0  0  0  0 
  2  4  1  0  0  0  0 
  3  5  1  0  0  0  0 
  3  6  1  0  0  0  0 
  7  4  2  0  0  0  0 
  6  8  2  0  0  0  0 
  8  7  1  0  0  0  0 
M  END
> <Name>
1,2-BENZENEDIAMINE

> <Source>
DSSTox2DMolFile

> <Tox>
-2.686

> <CAS>
95-54-5

$$$$

  CDK

  9  9  0  0  0  0  0  0  0  0999 V2000
    2.3151   -1.9965    0.0000 C   0  0  0  0  0  0  0  0  0  0  0  0
    2.3151   -3.3240    0.0000 C   0  0  0  0  0  0  0  0  0  0  0  0
    1.1629   -1.3275    0.0000 C   0  0  0  0  0  0  0  0  0  0  0  0
    1.1629   -3.9825    0.0000 C   0  0  0  0  0  0  0  0  0  0  0  0
    3.4621   -3.9825    0.0000 C   0  0  0  0  0  0  0  0  0  0  0  0
    0.0000   -1.9965    0.0000 C   0  0  0  0  0  0  0  0  0  0  0  0
    1.1629   -0.0000    0.0000 O   0  0  0  0  0  0  0  0  0  0  0  0
    0.0000   -3.3240    0.0000 C   0  0  0  0  0  0  0  0  0  0  0  0
    1.1629   -5.3100    0.0000 C   0  0  0  0  0  0  0  0  0  0  0  0
  1  2  1  0  0  0  0 
  1  3  2  0  0  0  0 
  2  4  2  0  0  0  0 
  2  5  1  0  0  0  0 
  3  6  1  0  0  0  0 
  3  7  1  0  0  0  0 
  4  8  1  0  0  0  0 
  4  9  1  0  0  0  0 
  6  8  2  0  0  0  0 
M  END
> <Name>
3,4-DIMETHYLPHENOL

> <Source>
DSSTox2DMolFile

> <Tox>
-1.449

> <CAS>
95-65-8

$$$$

  CDK

  9  9  0  0  0  0  0  0  0  0999 V2000
    4.6082   -0.0000    0.0000 N   0  0  0  0  0  0  0  0  0  0  0  0
    3.4561   -0.6636    0.0000 C   0  0  0  0  0  0  0  0  0  0  0  0
    3.4561   -1.9953    0.0000 C   0  0  0  0  0  0  0  0  0  0  0  0
    2.3041   -0.0000    0.0000 C   0  0  0  0  0  0  0  0  0  0  0  0
    2.3041   -2.6589    0.0000 C   0  0  0  0  0  0  0  0  0  0  0  0
    4.6082   -2.6589    0.0000 C   0  0  0  0  0  0  0  0  0  0  0  0
    1.1520   -0.6636    0.0000 C   0  0  0  0  0  0  0  0  0  0  0  0
    1.1520   -1.9953    0.0000 C   0  0  0  0  0  0  0  0  0  0  0  0
    0.0000   -2.6589    0.0000 C   0  0  0  0  0  0  0  0  0  0  0  0
  1  2  1  0  0  0  0 
  2  3  2  0  0  0  0 
  2  4  1  0  0  0  0 
  3  5  1  0  0  0  0 
  3  6  1  0  0  0  0 
  7  4  2  0  0  0  0 
  5  8  2  0  0  0  0 
  8  7  1  0  0  0  0 
  8  9  1  0  0  0  0 
M  END
> <Name>
2,4-DIMETHYLANILINE

> <Source>
DSSTox2DMolFile

> <Tox>
-0.876

> <CAS>
95-68-1

$$$$

  CDK

  9  9  0  0  0  0  0  0  0  0999 V2000
   -1.1785    1.0606    0.0009 C   0  0  0  0  0  0  0  0  0  0  0  0
   -0.9347   -0.3171    0.0003 C   0  0  0  0  0  0  0  0  0  0  0  0
   -0.0911    1.9372    0.0019 C   0  0  0  0  0  0  0  0  0  0  0  0
   -2.5690    1.5781   -0.0026 C   0  0  0  0  0  0  0  0  0  0  0  0
    0.3637   -0.8191    0.0000 C   0  0  0  0  0  0  0  0  0  0  0  0
   -2.2234   -1.4038    0.0005 Cl  0  0  0  0  0  0  0  0  0  0  0  0
    1.2101    1.4505    0.0011 C   0  0  0  0  0  0  0  0  0  0  0  0
    1.4299    0.0745    0.0001 C   0  0  0  0  0  0  0  0  0  0  0  0
    3.0076   -0.5164   -0.0007 Cl  0  0  0  0  0  0  0  0  0  0  0  0
  1  2  1  0  0  0  0 
  1  3  2  0  0  0  0 
  1  4  1  0  0  0  0 
  2  5  2  0  0  0  0 
  2  6  1  0  0  0  0 
  3  7  1  0  0  0  0 
  8  5  1  0  0  0  0 
  8  7  2  0  0  0  0 
  8  9  1  0  0  0  0 
M  END
> <Name>
2,4-DICHLOROTOLUENE

> <Source>
DougDB3DMolFile

> <Tox>
-0.339

> <CAS>
95-73-8

$$$$

  CDK

  9  9  0  0  0  0  0  0  0  0999 V2000
    4.6082   -2.6589    0.0000 C   0  0  0  0  0  0  0  0  0  0  0  0
    3.4561   -1.9953    0.0000 C   0  0  0  0  0  0  0  0  0  0  0  0
    2.3041   -2.6589    0.0000 C   0  0  0  0  0  0  0  0  0  0  0  0
    3.4561   -0.6636    0.0000 C   0  0  0  0  0  0  0  0  0  0  0  0
    1.1520   -1.9953    0.0000 C   0  0  0  0  0  0  0  0  0  0  0  0
    2.3041   -0.0000    0.0000 C   0  0  0  0  0  0  0  0  0  0  0  0
    0.0000   -2.6589    0.0000 Cl  0  0  0  0  0  0  0  0  0  0  0  0
    1.1520   -0.6636    0.0000 C   0  0  0  0  0  0  0  0  0  0  0  0
    0.0000   -0.0000    0.0000 Cl  0  0  0  0  0  0  0  0  0  0  0  0
  1  2  1  0  0  0  0 
  2  3  2  0  0  0  0 
  2  4  1  0  0  0  0 
  3  5  1  0  0  0  0 
  6  4  2  0  0  0  0 
  5  7  1  0  0  0  0 
  5  8  2  0  0  0  0 
  8  6  1  0  0  0  0 
  8  9  1  0  0  0  0 
M  END
> <Name>
3,4-DICHLOROTOLUENE

> <Source>
DSSTox2DMolFile

> <Tox>
-0.502

> <CAS>
95-75-0

$$$$

  CDK

  9  9  0  0  0  0  0  0  0  0999 V2000
    4.6082   -2.6589    0.0000 N   0  0  0  0  0  0  0  0  0  0  0  0
    3.4561   -1.9953    0.0000 C   0  0  0  0  0  0  0  0  0  0  0  0
    2.3041   -2.6589    0.0000 C   0  0  0  0  0  0  0  0  0  0  0  0
    3.4561   -0.6636    0.0000 C   0  0  0  0  0  0  0  0  0  0  0  0
    1.1520   -1.9953    0.0000 C   0  0  0  0  0  0  0  0  0  0  0  0
    2.3041   -0.0000    0.0000 C   0  0  0  0  0  0  0  0  0  0  0  0
    0.0000   -2.6589    0.0000 Cl  0  0  0  0  0  0  0  0  0  0  0  0
    1.1520   -0.6636    0.0000 C   0  0  0  0  0  0  0  0  0  0  0  0
    0.0000   -0.0000    0.0000 Cl  0  0  0  0  0  0  0  0  0  0  0  0
  1  2  1  0  0  0  0 
  2  3  2  0  0  0  0 
  2  4  1  0  0  0  0 
  3  5  1  0  0  0  0 
  6  4  2  0  0  0  0 
  5  7  1  0  0  0  0 
  5  8  2  0  0  0  0 
  8  6  1  0  0  0  0 
  8  9  1  0  0  0  0 
M  END
> <Name>
3,4-DICHLOROANILINE

> <Source>
DSSTox2DMolFile

> <Tox>
-2.199

> <CAS>
95-76-1

$$$$

  CDK

  9  9  0  0  0  0  0  0  0  0999 V2000
    0.0000   -2.6589    0.0000 N   0  0  0  0  0  0  0  0  0  0  0  0
    1.1520   -1.9953    0.0000 C   0  0  0  0  0  0  0  0  0  0  0  0
    1.1520   -0.6636    0.0000 C   0  0  0  0  0  0  0  0  0  0  0  0
    2.3041   -2.6589    0.0000 C   0  0  0  0  0  0  0  0  0  0  0  0
    2.3041   -0.0000    0.0000 C   0  0  0  0  0  0  0  0  0  0  0  0
    0.0000   -0.0000    0.0000 C   0  0  0  0  0  0  0  0  0  0  0  0
    3.4561   -1.9953    0.0000 C   0  0  0  0  0  0  0  0  0  0  0  0
    3.4561   -0.6636    0.0000 C   0  0  0  0  0  0  0  0  0  0  0  0
    4.6082   -2.6589    0.0000 N   0  0  0  0  0  0  0  0  0  0  0  0
  1  2  1  0  0  0  0 
  2  3  2  0  0  0  0 
  2  4  1  0  0  0  0 
  3  5  1  0  0  0  0 
  3  6  1  0  0  0  0 
  7  4  2  0  0  0  0 
  5  8  2  0  0  0  0 
  8  7  1  0  0  0  0 
  7  9  1  0  0  0  0 
M  END
> <Name>
2,4-TOLUENEDIAMINE

> <Source>
DSSTox2DMolFile

> <Tox>
-3.770

> <CAS>
95-80-7

$$$$

  CDK

  9  9  0  0  0  0  0  0  0  0999 V2000
    0.0000   -2.6589    0.0000 O   0  0  0  0  0  0  0  0  0  0  0  0
    1.1520   -1.9953    0.0000 C   0  0  0  0  0  0  0  0  0  0  0  0
    1.1520   -0.6636    0.0000 C   0  0  0  0  0  0  0  0  0  0  0  0
    2.3041   -2.6589    0.0000 C   0  0  0  0  0  0  0  0  0  0  0  0
    2.3041   -0.0000    0.0000 C   0  0  0  0  0  0  0  0  0  0  0  0
    0.0000   -0.0000    0.0000 C   0  0  0  0  0  0  0  0  0  0  0  0
    3.4561   -1.9953    0.0000 C   0  0  0  0  0  0  0  0  0  0  0  0
    3.4561   -0.6636    0.0000 C   0  0  0  0  0  0  0  0  0  0  0  0
    4.6082   -2.6589    0.0000 C   0  0  0  0  0  0  0  0  0  0  0  0
  1  2  1  0  0  0  0 
  2  3  2  0  0  0  0 
  2  4  1  0  0  0  0 
  3  5  1  0  0  0  0 
  3  6  1  0  0  0  0 
  7  4  2  0  0  0  0 
  5  8  2  0  0  0  0 
  8  7  1  0  0  0  0 
  7  9  1  0  0  0  0 
M  END
> <Name>
2,5-DIMETHYLPHENOL

> <Source>
DSSTox2DMolFile

> <Tox>
-0.807

> <CAS>
95-87-4

$$$$

  CDK

 10  9  0  0  0  0  0  0  0  0999 V2000
    0.7651   -0.8945    0.0001 C   0  0  0  0  0  0  0  0  0  0  0  0
   -0.7652   -0.8946   -0.0001 C   0  0  0  0  0  0  0  0  0  0  0  0
    1.4639   -1.8841    0.0002 O   0  0  0  0  0  0  0  0  0  0  0  0
    1.3198    0.3433    0.0000 O   0  0  0  0  0  0  0  0  0  0  0  0
   -1.4637   -1.8844   -0.0005 O   0  0  0  0  0  0  0  0  0  0  0  0
   -1.3199    0.3432    0.0002 O   0  0  0  0  0  0  0  0  0  0  0  0
    2.7485    0.4460    0.0004 C   0  0  0  0  0  0  0  0  0  0  0  0
   -2.7486    0.4461    0.0003 C   0  0  0  0  0  0  0  0  0  0  0  0
    3.0669    1.9280   -0.0004 C   0  0  0  0  0  0  0  0  0  0  0  0
   -3.0667    1.9281   -0.0001 C   0  0  0  0  0  0  0  0  0  0  0  0
  1  2  1  0  0  0  0 
  1  3  2  0  0  0  0 
  1  4  1  0  0  0  0 
  2  5  2  0  0  0  0 
  2  6  1  0  0  0  0 
  4  7  1  0  0  0  0 
  6  8  1  0  0  0  0 
  7  9  1  0  0  0  0 
  8 10  1  0  0  0  0 
M  END
> <Name>
ETHYL OXALATE

> <Source>
DougDB3DMolFile

> <Tox>
-0.383

> <CAS>
95-92-1

$$$$

  CDK

 10 10  0  0  0  0  0  0  0  0999 V2000
    1.3329   -0.0000    0.0000 Cl  0  0  0  0  0  0  0  0  0  0  0  0
    2.0100   -1.1516    0.0000 C   0  0  0  0  0  0  0  0  0  0  0  0
    3.3216   -1.1516    0.0000 C   0  0  0  0  0  0  0  0  0  0  0  0
    1.3329   -2.3086    0.0000 C   0  0  0  0  0  0  0  0  0  0  0  0
    3.9987   -2.3086    0.0000 C   0  0  0  0  0  0  0  0  0  0  0  0
    0.0000   -2.3086    0.0000 Cl  0  0  0  0  0  0  0  0  0  0  0  0
    2.0100   -3.4495    0.0000 C   0  0  0  0  0  0  0  0  0  0  0  0
    5.3316   -2.3086    0.0000 Cl  0  0  0  0  0  0  0  0  0  0  0  0
    3.3216   -3.4495    0.0000 C   0  0  0  0  0  0  0  0  0  0  0  0
    3.9987   -4.6065    0.0000 Cl  0  0  0  0  0  0  0  0  0  0  0  0
  1  2  1  0  0  0  0 
  3  2  1  0  0  0  0 
  2  4  2  0  0  0  0 
  5  3  2  0  0  0  0 
  6  4  1  0  0  0  0 
  7  4  1  0  0  0  0 
  8  5  1  0  0  0  0 
  5  9  1  0  0  0  0 
  9  7  2  0  0  0  0 
 10  9  1  0  0  0  0 
M  END
> <Name>
1,2,4,5-TETRACHLOROBENZENE

> <Source>
DSSTox2DMolFile

> <Tox>
-2.268

> <CAS>
95-94-3

$$$$

  CDK

 10 10  0  0  0  0  0  0  0  0999 V2000
    3.4527   -3.3252    0.0000 C   0  0  0  0  0  0  0  0  0  0  0  0
    2.3000   -3.9945    0.0000 C   0  0  0  0  0  0  0  0  0  0  0  0
    3.4527   -1.9866    0.0000 C   0  0  0  0  0  0  0  0  0  0  0  0
    1.1527   -3.3252    0.0000 C   0  0  0  0  0  0  0  0  0  0  0  0
    2.3000   -5.3118    0.0000 Cl  0  0  0  0  0  0  0  0  0  0  0  0
    2.3000   -1.3173    0.0000 C   0  0  0  0  0  0  0  0  0  0  0  0
    4.6054   -1.3173    0.0000 Cl  0  0  0  0  0  0  0  0  0  0  0  0
    1.1527   -1.9866    0.0000 C   0  0  0  0  0  0  0  0  0  0  0  0
    0.0000   -3.9945    0.0000 Cl  0  0  0  0  0  0  0  0  0  0  0  0
    2.3000   -0.0000    0.0000 O   0  0  0  0  0  0  0  0  0  0  0  0
  1  2  2  0  0  0  0 
  1  3  1  0  0  0  0 
  2  4  1  0  0  0  0 
  2  5  1  0  0  0  0 
  3  6  2  0  0  0  0 
  3  7  1  0  0  0  0 
  8  4  2  0  0  0  0 
  4  9  1  0  0  0  0 
  8  6  1  0  0  0  0 
  6 10  1  0  0  0  0 
M  END
> <Name>
2,4,5-TRICHLOROPHENOL

> <Source>
DSSTox2DMolFile

> <Tox>
-2.125

> <CAS>
95-95-4

$$$$

  CDK

  6  5  0  0  0  0  0  0  0  0999 V2000
    3.3247   -0.0000    0.0000 Br  0  0  0  0  0  0  0  0  0  0  0  0
    1.9948   -0.0000    0.0000 C   0  0  0  0  0  0  0  0  0  0  0  0
    1.3299   -1.1537    0.0000 C   0  0  0  0  0  0  0  0  0  0  0  0
    0.0000   -1.1537    0.0000 Br  0  0  0  0  0  0  0  0  0  0  0  0
    1.9948   -2.3040    0.0000 C   0  0  0  0  0  0  0  0  0  0  0  0
    3.3247   -2.3040    0.0000 O   0  0  0  0  0  0  0  0  0  0  0  0
  1  2  1  0  0  0  0 
  2  3  1  0  0  0  0 
  3  4  1  0  0  0  0 
  3  5  1  0  0  0  0 
  5  6  1  0  0  0  0 
M  END
> <Name>
2,3-DIBROMO-1-PROPANOL

> <Source>
DSSTox2DMolFile

> <Tox>
-1.037

> <CAS>
96-13-9

$$$$

  CDK

  6  5  0  0  0  0  0  0  0  0999 V2000
    2.1284    2.6393    1.4703 C   0  0  0  0  0  0  0  0  0  0  0  0
    2.1067    2.1157    2.9080 C   0  0  0  0  0  0  0  0  0  0  0  0
    0.7862    3.1835    1.0336 C   0  0  0  0  0  0  0  0  0  0  0  0
    3.5145    2.0585    3.5074 C   0  0  0  0  0  0  0  0  0  0  0  0
    1.4171    0.7638    2.9936 C   0  0  0  0  0  0  0  0  0  0  0  0
    4.4812    1.1700    2.7569 C   0  0  0  0  0  0  0  0  0  0  0  0
  1  2  1  0  0  0  0 
  1  3  1  0  0  0  0 
  2  4  1  0  0  0  0 
  2  5  1  0  0  0  0 
  4  6  1  0  0  0  0 
M  END
> <Name>
3-METHYLPENTANE

> <Source>
NIST3DMolFile

> <Tox>
2.279

> <CAS>
96-14-0

$$$$

  CDK

  6  5  0  0  0  0  0  0  0  0999 V2000
    2.6616   -0.0000    0.0000 Cl  0  0  0  0  0  0  0  0  0  0  0  0
    1.9952   -1.1492    0.0000 C   0  0  0  0  0  0  0  0  0  0  0  0
    2.6616   -2.3025    0.0000 C   0  0  0  0  0  0  0  0  0  0  0  0
    0.6664   -1.1492    0.0000 C   0  0  0  0  0  0  0  0  0  0  0  0
    3.9905   -2.3025    0.0000 Cl  0  0  0  0  0  0  0  0  0  0  0  0
    0.0000   -2.3025    0.0000 Cl  0  0  0  0  0  0  0  0  0  0  0  0
  1  2  1  0  0  0  0 
  2  3  1  0  0  0  0 
  2  4  1  0  0  0  0 
  3  5  1  0  0  0  0 
  4  6  1  0  0  0  0 
M  END
> <Name>
1,2,3-TRICHLOROPROPANE

> <Source>
DSSTox2DMolFile

> <Tox>
0.567

> <CAS>
96-18-4

$$$$

  CDK

  6  5  0  0  0  0  0  0  0  0999 V2000
    3.4509   -1.3286    0.0000 C   0  0  0  0  0  0  0  0  0  0  0  0
    2.2983   -1.9981    0.0000 O   0  0  0  0  0  0  0  0  0  0  0  0
    1.1526   -1.3286    0.0000 C   0  0  0  0  0  0  0  0  0  0  0  0
    1.1526   -0.0000    0.0000 O   0  0  0  0  0  0  0  0  0  0  0  0
    0.0000   -1.9981    0.0000 C   0  0  0  0  0  0  0  0  0  0  0  0
    0.0000   -3.3267    0.0000 C   0  0  0  0  0  0  0  0  0  0  0  0
  1  2  1  0  0  0  0 
  2  3  1  0  0  0  0 
  4  3  2  0  0  0  0 
  3  5  1  0  0  0  0 
  5  6  2  0  0  0  0 
M  END
> <Name>
METHYL ACRYLATE

> <Source>
DSSTox2DMolFile

> <Tox>
1.938

> <CAS>
96-33-3

$$$$

  CDK

  6  5  0  0  0  0  0  0  0  0999 V2000
    0.0000    1.0024    0.0000 Cl  0  0  0  0  0  0  0  0  0  0  0  0
    0.9022    1.5036    0.0000 C   0  0  0  0  0  0  0  0  0  0  0  0
    1.7542    1.0024    0.0000 C   0  0  0  0  0  0  0  0  0  0  0  0
    2.6062    1.5036    0.0000 O   0  0  0  0  0  0  0  0  0  0  0  0
    1.7542    0.0000    0.0000 O   0  0  0  0  0  0  0  0  0  0  0  0
    3.4583    1.0024    0.0000 C   0  0  0  0  0  0  0  0  0  0  0  0
  1  2  1  0  0  0  0 
  2  3  1  0  0  0  0 
  3  4  1  0  0  0  0 
  3  5  2  0  0  0  0 
  4  6  1  0  0  0  0 
M  END
> <Name>
METHYL CHLOROACETATE

> <Source>
NIST2DMolFile

> <Tox>
0.883

> <CAS>
96-34-4

$$$$

  CDK

  6  6  0  0  0  0  0  0  0  0999 V2000
    1.3304   -1.0738    0.0000 C   0  0  0  0  0  0  0  0  0  0  0  0
    2.1104   -0.0000    0.0000 C   0  0  0  0  0  0  0  0  0  0  0  0
    2.1104   -2.1509    0.0000 C   0  0  0  0  0  0  0  0  0  0  0  0
    0.0000   -1.0738    0.0000 C   0  0  0  0  0  0  0  0  0  0  0  0
    3.3767   -0.4086    0.0000 C   0  0  0  0  0  0  0  0  0  0  0  0
    3.3767   -1.7390    0.0000 C   0  0  0  0  0  0  0  0  0  0  0  0
  1  2  1  0  0  0  0 
  1  3  1  0  0  0  0 
  1  4  1  0  0  0  0 
  2  5  1  0  0  0  0 
  6  3  1  0  0  0  0 
  5  6  1  0  0  0  0 
M  END
> <Name>
METHYLCYCLOPENTANE

> <Source>
DSSTox2DMolFile

> <Tox>
2.140

> <CAS>
96-37-7

$$$$

  CDK

  6  6  0  0  0  0  0  0  0  0999 V2000
    3.4272   -0.3222    0.0000 O   0  0  0  0  0  0  0  0  0  0  0  0
    2.1489   -0.7574    0.0000 C   0  0  0  0  0  0  0  0  0  0  0  0
    1.7308   -2.0358    0.0000 C   0  0  0  0  0  0  0  0  0  0  0  0
    1.0522   -0.0000    0.0000 C   0  0  0  0  0  0  0  0  0  0  0  0
    0.4216   -2.0358    0.0000 C   0  0  0  0  0  0  0  0  0  0  0  0
    0.0000   -0.7574    0.0000 C   0  0  0  0  0  0  0  0  0  0  0  0
  1  2  1  0  0  0  0 
  2  3  1  0  0  0  0 
  2  4  1  0  0  0  0 
  3  5  1  0  0  0  0 
  4  6  1  0  0  0  0 
  6  5  1  0  0  0  0 
M  END
> <Name>
CYCLOPENTANOL

> <Source>
DSSTox2DMolFile

> <Tox>
0.396

> <CAS>
96-41-3

$$$$

  CDK

  6  6  0  0  0  0  0  0  0  0999 V2000
    0.8029    0.0000    0.0000 S   0  0  0  0  0  0  0  0  0  0  0  0
    1.6057    0.6021    0.0000 C   0  0  0  0  0  0  0  0  0  0  0  0
    0.0000    0.6021    0.0000 C   0  0  0  0  0  0  0  0  0  0  0  0
    1.3046    1.5555    0.0000 C   0  0  0  0  0  0  0  0  0  0  0  0
    2.4588    0.1004    0.0000 Cl  0  0  0  0  0  0  0  0  0  0  0  0
    0.3011    1.5555    0.0000 C   0  0  0  0  0  0  0  0  0  0  0  0
  2  1  1  0  0  0  0 
  1  3  1  0  0  0  0 
  4  2  2  0  0  0  0 
  2  5  1  0  0  0  0 
  3  6  2  0  0  0  0 
  6  4  1  0  0  0  0 
M  END
> <Name>
2-CHLOROTHIOPHENE

> <Source>
NIST2DMolFile

> <Tox>
1.377

> <CAS>
96-43-5

$$$$

  CDK

  6  6  0  0  0  0  0  0  0  0999 V2000
    2.0995   -1.8444    0.0000 O   0  0  0  0  0  0  0  0  0  0  0  0
    1.9548   -3.1752    0.0000 C   0  0  0  0  0  0  0  0  0  0  0  0
    0.8826   -1.3135    0.0000 C   0  0  0  0  0  0  0  0  0  0  0  0
    0.6585   -3.4475    0.0000 C   0  0  0  0  0  0  0  0  0  0  0  0
    0.0000   -2.2926    0.0000 C   0  0  0  0  0  0  0  0  0  0  0  0
    0.6102   -0.0000    0.0000 C   0  0  0  0  0  0  0  0  0  0  0  0
  1  2  1  0  0  0  0 
  1  3  1  0  0  0  0 
  2  4  1  0  0  0  0 
  3  5  1  0  0  0  0 
  3  6  1  0  0  0  0 
  4  5  1  0  0  0  0 
M  END
> <Name>
2-METHYLTETRAHYDROFURAN

> <Source>
DSSTox2DMolFile

> <Tox>
1.988

> <CAS>
96-47-9

$$$$

  CDK

  6  6  0  0  0  0  0  0  0  0999 V2000
    0.0000   -1.0738    0.0000 O   0  0  0  0  0  0  0  0  0  0  0  0
    1.3304   -1.0738    0.0000 C   0  0  0  0  0  0  0  0  0  0  0  0
    2.1104   -0.0000    0.0000 C   0  0  0  0  0  0  0  0  0  0  0  0
    2.1104   -2.1509    0.0000 O   0  0  0  0  0  0  0  0  0  0  0  0
    3.3767   -0.4086    0.0000 C   0  0  0  0  0  0  0  0  0  0  0  0
    3.3767   -1.7390    0.0000 C   0  0  0  0  0  0  0  0  0  0  0  0
  1  2  2  0  0  0  0 
  2  3  1  0  0  0  0 
  2  4  1  0  0  0  0 
  3  5  1  0  0  0  0 
  6  4  1  0  0  0  0 
  5  6  1  0  0  0  0 
M  END
> <Name>
GAMMA-BUTYROLACTONE

> <Source>
DSSTox2DMolFile

> <Tox>
-0.347

> <CAS>
96-48-0

$$$$

  CDK

  6  6  0  0  0  0  0  0  0  0999 V2000
    1.2573   -0.0000    0.0000 O   0  0  0  0  0  0  0  0  0  0  0  0
    2.0326   -1.0820    0.0000 C   0  0  0  0  0  0  0  0  0  0  0  0
    0.0000   -0.4348    0.0000 C   0  0  0  0  0  0  0  0  0  0  0  0
    1.2573   -2.1775    0.0000 O   0  0  0  0  0  0  0  0  0  0  0  0
    3.3708   -1.0820    0.0000 O   0  0  0  0  0  0  0  0  0  0  0  0
    0.0000   -1.7427    0.0000 C   0  0  0  0  0  0  0  0  0  0  0  0
  1  2  1  0  0  0  0 
  1  3  1  0  0  0  0 
  2  4  1  0  0  0  0 
  2  5  2  0  0  0  0 
  6  3  1  0  0  0  0 
  4  6  1  0  0  0  0 
M  END
> <Name>
1,3-DIOXOLAN-2-ONE

> <Source>
DSSTox2DMolFile

> <Tox>
-2.009

> <CAS>
96-49-1

$$$$

  CDK

  6  6  0  0  0  0  0  0  0  0999 V2000
    0.6856    1.9531    0.9905 C   0  0  0  0  0  0  0  0  0  0  0  0
    1.9889    1.8524    1.6413 N   0  0  0  0  0  0  0  0  0  0  0  0
    2.9323    0.8423    1.4078 C   0  0  0  0  0  0  0  0  0  0  0  0
    2.5169    2.7875    2.5423 C   0  0  0  0  0  0  0  0  0  0  0  0
    4.0481    1.1426    2.1768 C   0  0  0  0  0  0  0  0  0  0  0  0
    3.7900    2.3510    2.8816 C   0  0  0  0  0  0  0  0  0  0  0  0
  1  2  1  0  0  0  0 
  3  2  1  0  0  0  0 
  2  4  1  0  0  0  0 
  5  3  2  0  0  0  0 
  4  6  2  0  0  0  0 
  6  5  1  0  0  0  0 
M  END
> <Name>
N-METHYLPYRROLE

> <Source>
NIST3DMolFile

> <Tox>
1.330

> <CAS>
96-54-8

$$$$

  CDK

 11 10  0  0  0  0  0  0  0  0999 V2000
    4.6460   -2.4815    0.0000 P   0  0  0  0  0  0  0  0  0  0  0  0
    5.9794   -2.4815    0.0000 O   0  0  0  0  0  0  0  0  0  0  0  0
    3.3186   -2.4815    0.0000 O   0  0  0  0  0  0  0  0  0  0  0  0
    4.6460   -3.8149    0.0000 F   0  0  0  0  0  0  0  0  0  0  0  0
    4.6460   -1.1540    0.0000 C   0  0  0  0  0  0  0  0  0  0  0  0
    2.6608   -1.3274    0.0000 C   0  0  0  0  0  0  0  0  0  0  0  0
    1.3334   -1.3274    0.0000 C   0  0  0  0  0  0  0  0  0  0  0  0
    3.3186   -0.1734    0.0000 C   0  0  0  0  0  0  0  0  0  0  0  0
    1.3334   -2.6608    0.0000 C   0  0  0  0  0  0  0  0  0  0  0  0
    1.3334   -0.0000    0.0000 C   0  0  0  0  0  0  0  0  0  0  0  0
    0.0000   -1.3274    0.0000 C   0  0  0  0  0  0  0  0  0  0  0  0
  1  2  2  0  0  0  0 
  1  3  1  0  0  0  0 
  1  4  1  0  0  0  0 
  1  5  1  0  0  0  0 
  3  6  1  0  0  0  0 
  6  7  1  0  0  0  0 
  6  8  1  0  0  0  0 
  7  9  1  0  0  0  0 
  7 10  1  0  0  0  0 
  7 11  1  0  0  0  0 
M  END
> <Name>
SOMAN

> <Source>
DSSTox2DMolFile

> <Tox>
-0.398

> <CAS>
96-64-0

$$$$

  CDK

 13 13  0  0  0  0  0  0  0  0999 V2000
   -1.7417   -2.0370    0.2484 O   0  0  0  0  0  0  0  0  0  0  0  0
   -0.5795   -1.3497    0.0668 C   0  0  0  0  0  0  0  0  0  0  0  0
   -0.5456    0.0169   -0.0576 C   0  0  0  0  0  0  0  0  0  0  0  0
    0.6246   -2.0514    0.0057 C   0  0  0  0  0  0  0  0  0  0  0  0
   -1.8636    0.8065    0.0052 C   0  0  0  0  0  0  0  0  0  0  0  0
    0.6159    0.7276   -0.2393 C   0  0  0  0  0  0  0  0  0  0  0  0
    1.8242   -1.3636   -0.1777 C   0  0  0  0  0  0  0  0  0  0  0  0
   -1.5742    2.3142   -0.1595 C   0  0  0  0  0  0  0  0  0  0  0  0
   -2.5484    0.5669    1.3683 C   0  0  0  0  0  0  0  0  0  0  0  0
   -2.8801    0.4146   -1.0910 C   0  0  0  0  0  0  0  0  0  0  0  0
    1.8198    0.0257   -0.3002 C   0  0  0  0  0  0  0  0  0  0  0  0
    3.1030    0.7599   -0.4960 C   0  0  0  0  0  0  0  0  0  0  0  0
    3.7455    1.1693    0.8268 C   0  0  0  0  0  0  0  0  0  0  0  0
  1  2  1  0  0  0  0 
  3  2  2  0  0  0  0 
  2  4  1  0  0  0  0 
  5  3  1  0  0  0  0 
  3  6  1  0  0  0  0 
  4  7  2  0  0  0  0 
  5  8  1  0  0  0  0 
  5  9  1  0  0  0  0 
  5 10  1  0  0  0  0 
  6 11  2  0  0  0  0 
 11  7  1  0  0  0  0 
 11 12  1  0  0  0  0 
 12 13  1  0  0  0  0 
M  END
> <Name>
2-(T-BUTYL)-4-ETHYLPHENOL

> <Source>
Chemidplus3DMolFile

> <Tox>
-1.745

> <CAS>
96-70-8

$$$$

  CDK

 17 17  0  0  0  0  0  0  0  0999 V2000
    0.7647   -0.1599   -0.3316 C   0  0  0  0  0  0  0  0  0  0  0  0
   -0.5667    0.0038   -0.5459 O   0  0  0  0  0  0  0  0  0  0  0  0
    1.5904    0.9795   -0.3008 C   0  0  0  0  0  0  0  0  0  0  0  0
    1.3388   -1.4414   -0.2807 C   0  0  0  0  0  0  0  0  0  0  0  0
   -1.8184   -0.3004    0.6141 P   0  0  0  0  0  0  0  0  0  0  0  0
    2.9706    0.8382   -0.1894 C   0  0  0  0  0  0  0  0  0  0  0  0
    0.9392    2.5293   -0.4174 Cl  0  0  0  0  0  0  0  0  0  0  0  0
    2.7157   -1.5737   -0.1693 C   0  0  0  0  0  0  0  0  0  0  0  0
   -2.9470    0.6808   -0.1780 O   0  0  0  0  0  0  0  0  0  0  0  0
   -2.3600   -1.8036    0.0949 O   0  0  0  0  0  0  0  0  0  0  0  0
   -1.4810   -0.1433    2.4986 S   0  0  0  0  0  0  0  0  0  0  0  0
    3.5219   -0.4372   -0.1193 C   0  0  0  0  0  0  0  0  0  0  0  0
   -2.8013    2.0816   -0.1354 C   0  0  0  0  0  0  0  0  0  0  0  0
   -2.5472   -2.1624   -1.2549 C   0  0  0  0  0  0  0  0  0  0  0  0
    5.1918   -0.6105    0.0212 Cl  0  0  0  0  0  0  0  0  0  0  0  0
   -3.7269    2.6876   -1.1763 C   0  0  0  0  0  0  0  0  0  0  0  0
   -3.3897   -3.4268   -1.2931 C   0  0  0  0  0  0  0  0  0  0  0  0
  1  2  1  0  0  0  0 
  1  3  1  0  0  0  0 
  1  4  2  0  0  0  0 
  2  5  1  0  0  0  0 
  3  6  2  0  0  0  0 
  3  7  1  0  0  0  0 
  4  8  1  0  0  0  0 
  5  9  1  0  0  0  0 
  5 10  1  0  0  0  0 
  5 11  2  0  0  0  0 
  6 12  1  0  0  0  0 
  8 12  2  0  0  0  0 
  9 13  1  0  0  0  0 
 10 14  1  0  0  0  0 
 12 15  1  0  0  0  0 
 13 16  1  0  0  0  0 
 14 17  1  0  0  0  0 
M  END
> <Name>
DICHLOFENTHION

> <Source>
DougDB3DMolFile

> <Tox>
-3.252

> <CAS>
97-17-6

$$$$

  CDK

 12 12  0  0  0  0  0  0  0  0999 V2000
    6.9143   -0.0000    0.0000 O   0  0  0  0  0  0  0  0  0  0  0  0
    5.7605   -0.6696    0.0000 C   0  0  0  0  0  0  0  0  0  0  0  0
    5.7605   -2.0009    0.0000 C   0  0  0  0  0  0  0  0  0  0  0  0
    4.6068   -0.0000    0.0000 C   0  0  0  0  0  0  0  0  0  0  0  0
    4.6068   -2.6624    0.0000 C   0  0  0  0  0  0  0  0  0  0  0  0
    6.9143   -2.6624    0.0000 O   0  0  0  0  0  0  0  0  0  0  0  0
    3.4612   -0.6696    0.0000 C   0  0  0  0  0  0  0  0  0  0  0  0
    3.4612   -2.0009    0.0000 C   0  0  0  0  0  0  0  0  0  0  0  0
    8.0680   -2.0009    0.0000 C   0  0  0  0  0  0  0  0  0  0  0  0
    2.3074   -2.6624    0.0000 C   0  0  0  0  0  0  0  0  0  0  0  0
    1.1537   -2.0009    0.0000 C   0  0  0  0  0  0  0  0  0  0  0  0
    0.0000   -2.6624    0.0000 C   0  0  0  0  0  0  0  0  0  0  0  0
  1  2  1  0  0  0  0 
  2  3  2  0  0  0  0 
  2  4  1  0  0  0  0 
  3  5  1  0  0  0  0 
  3  6  1  0  0  0  0 
  7  4  2  0  0  0  0 
  5  8  2  0  0  0  0 
  6  9  1  0  0  0  0 
  8  7  1  0  0  0  0 
  8 10  1  0  0  0  0 
 10 11  1  0  0  0  0 
 11 12  2  0  0  0  0 
M  END
> <Name>
EUGENOL

> <Source>
DSSTox2DMolFile

> <Tox>
-1.646

> <CAS>
97-53-0

$$$$

  CDK

 12 12  0  0  0  0  0  0  0  0999 V2000
    5.7456   -1.9957    0.0000 C   0  0  0  0  0  0  0  0  0  0  0  0
    5.7456   -0.6679    0.0000 C   0  0  0  0  0  0  0  0  0  0  0  0
    4.5868   -2.6797    0.0000 C   0  0  0  0  0  0  0  0  0  0  0  0
    6.9044   -2.6716    0.0000 O   0  0  0  0  0  0  0  0  0  0  0  0
    4.5868   -0.0080    0.0000 C   0  0  0  0  0  0  0  0  0  0  0  0
    6.8964   -0.0000    0.0000 O   0  0  0  0  0  0  0  0  0  0  0  0
    3.4281   -2.0037    0.0000 C   0  0  0  0  0  0  0  0  0  0  0  0
    8.0471   -2.0279    0.0000 C   0  0  0  0  0  0  0  0  0  0  0  0
    3.4281   -0.6760    0.0000 C   0  0  0  0  0  0  0  0  0  0  0  0
    2.2773   -2.6797    0.0000 C   0  0  0  0  0  0  0  0  0  0  0  0
    1.1266   -2.0037    0.0000 C   0  0  0  0  0  0  0  0  0  0  0  0
    0.0000   -2.6394    0.0000 C   0  0  0  0  0  0  0  0  0  0  0  0
  1  2  1  0  0  0  0 
  1  3  2  0  0  0  0 
  1  4  1  0  0  0  0 
  2  5  2  0  0  0  0 
  2  6  1  0  0  0  0 
  3  7  1  0  0  0  0 
  4  8  1  0  0  0  0 
  5  9  1  0  0  0  0 
 10  7  1  0  0  0  0 
  7  9  2  0  0  0  0 
 10 11  2  0  0  0  0 
 11 12  1  0  0  0  0 
M  END
> <Name>
2-METHOXY-4-(1-PROPENYL)PHENOL

> <Source>
DSSTox2DMolFile

> <Tox>
-1.921

> <CAS>
97-54-1

$$$$

  CDK

 17 18  0  0  0  0  0  0  0  0999 V2000
    2.6631   -0.0000    0.0000 C   0  0  0  0  0  0  0  0  0  0  0  0
    1.9948   -1.1570    0.0000 C   0  0  0  0  0  0  0  0  0  0  0  0
    2.6631   -2.3040    0.0000 C   0  0  0  0  0  0  0  0  0  0  0  0
    0.6683   -1.1570    0.0000 C   0  0  0  0  0  0  0  0  0  0  0  0
    1.9948   -3.4610    0.0000 C   0  0  0  0  0  0  0  0  0  0  0  0
    3.9896   -2.3040    0.0000 N   0  0  0  0  0  0  0  0  0  0  0  0
    0.0000   -2.3040    0.0000 C   0  0  0  0  0  0  0  0  0  0  0  0
    0.6683   -3.4610    0.0000 C   0  0  0  0  0  0  0  0  0  0  0  0
    4.6579   -3.4610    0.0000 N   0  0  0  0  0  0  0  0  0  0  0  0
    5.9844   -3.4610    0.0000 C   0  0  0  0  0  0  0  0  0  0  0  0
    6.6527   -2.3040    0.0000 C   0  0  0  0  0  0  0  0  0  0  0  0
    6.6527   -4.6080    0.0000 C   0  0  0  0  0  0  0  0  0  0  0  0
    7.9793   -2.3040    0.0000 C   0  0  0  0  0  0  0  0  0  0  0  0
    7.9793   -4.6080    0.0000 C   0  0  0  0  0  0  0  0  0  0  0  0
    8.6475   -3.4610    0.0000 C   0  0  0  0  0  0  0  0  0  0  0  0
    8.6475   -1.1570    0.0000 C   0  0  0  0  0  0  0  0  0  0  0  0
    9.9741   -3.4610    0.0000 N   0  0  0  0  0  0  0  0  0  0  0  0
  1  2  1  0  0  0  0 
  2  3  2  0  0  0  0 
  2  4  1  0  0  0  0 
  3  5  1  0  0  0  0 
  3  6  1  0  0  0  0 
  7  4  2  0  0  0  0 
  5  8  2  0  0  0  0 
  6  9  2  0  0  0  0 
  8  7  1  0  0  0  0 
  9 10  1  0  0  0  0 
 10 11  2  0  0  0  0 
 10 12  1  0  0  0  0 
 11 13  1  0  0  0  0 
 14 12  2  0  0  0  0 
 13 15  2  0  0  0  0 
 13 16  1  0  0  0  0 
 15 14  1  0  0  0  0 
 15 17  1  0  0  0  0 
M  END
> <Name>
o-Aminoazotoluene

> <Source>
DSSTox2DMolFile

> <Tox>
-6.125

> <CAS>
97-56-3

$$$$

  CDK

  8  7  0  0  0  0  0  0  0  0999 V2000
    1.7063    1.5056    0.0000 O   0  0  0  0  0  0  0  0  0  0  0  0
    2.6096    1.0037    0.0000 C   0  0  0  0  0  0  0  0  0  0  0  0
    0.8531    1.0037    0.0000 C   0  0  0  0  0  0  0  0  0  0  0  0
    3.4628    1.5056    0.0000 C   0  0  0  0  0  0  0  0  0  0  0  0
    2.6096    0.0000    0.0000 O   0  0  0  0  0  0  0  0  0  0  0  0
    0.0000    1.5056    0.0000 C   0  0  0  0  0  0  0  0  0  0  0  0
    3.4628    2.5093    0.0000 C   0  0  0  0  0  0  0  0  0  0  0  0
    4.3159    1.0037    0.0000 C   0  0  0  0  0  0  0  0  0  0  0  0
  1  2  1  0  0  0  0 
  1  3  1  0  0  0  0 
  2  4  1  0  0  0  0 
  2  5  2  0  0  0  0 
  3  6  1  0  0  0  0 
  4  7  1  0  0  0  0 
  4  8  1  0  0  0  0 
M  END
> <Name>
ETHYL ISOBUTYRATE

> <Source>
NIST2DMolFile

> <Tox>
1.405

> <CAS>
97-62-1

$$$$

  CDK

  8  7  0  0  0  0  0  0  0  0999 V2000
    3.4577   -0.0000    0.0000 O   0  0  0  0  0  0  0  0  0  0  0  0
    3.4577   -1.3312    0.0000 C   0  0  0  0  0  0  0  0  0  0  0  0
    2.3051   -1.9939    0.0000 O   0  0  0  0  0  0  0  0  0  0  0  0
    4.6103   -1.9939    0.0000 C   0  0  0  0  0  0  0  0  0  0  0  0
    1.1526   -1.3312    0.0000 C   0  0  0  0  0  0  0  0  0  0  0  0
    5.7628   -1.3312    0.0000 C   0  0  0  0  0  0  0  0  0  0  0  0
    4.6103   -3.3252    0.0000 C   0  0  0  0  0  0  0  0  0  0  0  0
    0.0000   -1.9939    0.0000 C   0  0  0  0  0  0  0  0  0  0  0  0
  1  2  2  0  0  0  0 
  2  3  1  0  0  0  0 
  2  4  1  0  0  0  0 
  3  5  1  0  0  0  0 
  4  6  2  0  0  0  0 
  4  7  1  0  0  0  0 
  5  8  1  0  0  0  0 
M  END
> <Name>
ETHYL METHACRYLATE

> <Source>
DSSTox2DMolFile

> <Tox>
1.314

> <CAS>
97-63-2

$$$$

  CDK

  8  7  0  0  0  0  0  0  0  0999 V2000
    3.4524   -1.3292    0.0000 C   0  0  0  0  0  0  0  0  0  0  0  0
    4.6031   -1.9966    0.0000 C   0  0  0  0  0  0  0  0  0  0  0  0
    2.3016   -1.9966    0.0000 O   0  0  0  0  0  0  0  0  0  0  0  0
    3.4524   -0.0000    0.0000 O   0  0  0  0  0  0  0  0  0  0  0  0
    5.7539   -1.3292    0.0000 C   0  0  0  0  0  0  0  0  0  0  0  0
    4.6031   -3.3258    0.0000 O   0  0  0  0  0  0  0  0  0  0  0  0
    1.1508   -1.3292    0.0000 C   0  0  0  0  0  0  0  0  0  0  0  0
    0.0000   -1.9966    0.0000 C   0  0  0  0  0  0  0  0  0  0  0  0
  1  2  1  0  0  0  0 
  1  3  1  0  0  0  0 
  1  4  2  0  0  0  0 
  2  5  1  0  0  0  0 
  2  6  1  0  0  0  0 
  3  7  1  0  0  0  0 
  7  8  1  0  0  0  0 
M  END
> <Name>
ETHYL LACTATE

> <Source>
DSSTox2DMolFile

> <Tox>
0.574

> <CAS>
97-64-3

$$$$

  CDK

 10  9  0  0  0  0  0  0  0  0999 V2000
    4.6515   -1.3399    0.0000 C   0  0  0  0  0  0  0  0  0  0  0  0
    5.8109   -1.9856    0.0000 C   0  0  0  0  0  0  0  0  0  0  0  0
    3.4852   -1.9856    0.0000 O   0  0  0  0  0  0  0  0  0  0  0  0
    4.6515   -0.0000    0.0000 O   0  0  0  0  0  0  0  0  0  0  0  0
    6.9425   -1.3399    0.0000 C   0  0  0  0  0  0  0  0  0  0  0  0
    5.8109   -3.3255    0.0000 C   0  0  0  0  0  0  0  0  0  0  0  0
    2.3119   -1.3399    0.0000 C   0  0  0  0  0  0  0  0  0  0  0  0
    1.1594   -1.9995    0.0000 C   0  0  0  0  0  0  0  0  0  0  0  0
    1.1802   -3.3255    0.0000 C   0  0  0  0  0  0  0  0  0  0  0  0
    0.0000   -1.3399    0.0000 C   0  0  0  0  0  0  0  0  0  0  0  0
  1  2  1  0  0  0  0 
  1  3  1  0  0  0  0 
  1  4  2  0  0  0  0 
  2  5  1  0  0  0  0 
  2  6  1  0  0  0  0 
  3  7  1  0  0  0  0 
  7  8  1  0  0  0  0 
  8  9  1  0  0  0  0 
  8 10  1  0  0  0  0 
M  END
> <Name>
ISOBUTYL ISOBUTYRATE

> <Source>
DSSTox2DMolFile

> <Tox>
0.636

> <CAS>
97-85-8

$$$$

  CDK

 10  9  0  0  0  0  0  0  0  0999 V2000
    4.6069   -1.3261    0.0000 C   0  0  0  0  0  0  0  0  0  0  0  0
    4.6069   -0.0000    0.0000 O   0  0  0  0  0  0  0  0  0  0  0  0
    3.4535   -1.9961    0.0000 O   0  0  0  0  0  0  0  0  0  0  0  0
    5.7535   -1.9961    0.0000 C   0  0  0  0  0  0  0  0  0  0  0  0
    2.3000   -1.3261    0.0000 C   0  0  0  0  0  0  0  0  0  0  0  0
    6.9070   -1.3261    0.0000 C   0  0  0  0  0  0  0  0  0  0  0  0
    5.7535   -3.3223    0.0000 C   0  0  0  0  0  0  0  0  0  0  0  0
    1.1535   -1.9961    0.0000 C   0  0  0  0  0  0  0  0  0  0  0  0
    1.1535   -3.3223    0.0000 C   0  0  0  0  0  0  0  0  0  0  0  0
    0.0000   -1.3261    0.0000 C   0  0  0  0  0  0  0  0  0  0  0  0
  1  2  2  0  0  0  0 
  1  3  1  0  0  0  0 
  1  4  1  0  0  0  0 
  3  5  1  0  0  0  0 
  4  6  1  0  0  0  0 
  4  7  2  0  0  0  0 
  5  8  1  0  0  0  0 
  8  9  1  0  0  0  0 
  8 10  1  0  0  0  0 
M  END
> <Name>
METHACRYLIC ACID, I-BUTYL ESTER

> <Source>
DSSTox2DMolFile

> <Tox>
0.560

> <CAS>
97-86-9

$$$$

  CDK

 10  9  0  0  0  0  0  0  0  0999 V2000
    4.6578   -1.1511    0.0000 C   0  0  0  0  0  0  0  0  0  0  0  0
    3.9924   -0.0000    0.0000 O   0  0  0  0  0  0  0  0  0  0  0  0
    3.9924   -2.3023    0.0000 O   0  0  0  0  0  0  0  0  0  0  0  0
    5.9885   -1.1511    0.0000 C   0  0  0  0  0  0  0  0  0  0  0  0
    2.6616   -2.3023    0.0000 C   0  0  0  0  0  0  0  0  0  0  0  0
    6.6539   -0.0000    0.0000 C   0  0  0  0  0  0  0  0  0  0  0  0
    6.6539   -2.3023    0.0000 C   0  0  0  0  0  0  0  0  0  0  0  0
    1.9962   -1.1511    0.0000 C   0  0  0  0  0  0  0  0  0  0  0  0
    0.6654   -1.1511    0.0000 C   0  0  0  0  0  0  0  0  0  0  0  0
    0.0000   -0.0000    0.0000 C   0  0  0  0  0  0  0  0  0  0  0  0
  1  2  2  0  0  0  0 
  1  3  1  0  0  0  0 
  1  4  1  0  0  0  0 
  3  5  1  0  0  0  0 
  4  6  1  0  0  0  0 
  4  7  2  0  0  0  0 
  5  8  1  0  0  0  0 
  8  9  1  0  0  0  0 
  9 10  1  0  0  0  0 
M  END
> <Name>
METHACRYLIC ACID, N-BUTYL ESTER

> <Source>
DSSTox2DMolFile

> <Tox>
0.326

> <CAS>
97-88-1

$$$$

  CDK

  7  7  0  0  0  0  0  0  0  0999 V2000
    2.2247   -2.7880    0.0000 O   0  0  0  0  0  0  0  0  0  0  0  0
    1.8276   -4.0523    0.0000 C   0  0  0  0  0  0  0  0  0  0  0  0
    1.1549   -2.0018    0.0000 C   0  0  0  0  0  0  0  0  0  0  0  0
    0.4984   -4.0523    0.0000 C   0  0  0  0  0  0  0  0  0  0  0  0
    0.0810   -2.7880    0.0000 C   0  0  0  0  0  0  0  0  0  0  0  0
    1.1549   -0.6727    0.0000 C   0  0  0  0  0  0  0  0  0  0  0  0
    0.0000   -0.0000    0.0000 O   0  0  0  0  0  0  0  0  0  0  0  0
  1  2  1  0  0  0  0 
  1  3  1  0  0  0  0 
  2  4  1  0  0  0  0 
  3  5  1  0  0  0  0 
  3  6  1  0  0  0  0 
  4  5  1  0  0  0  0 
  6  7  1  0  0  0  0 
M  END
> <Name>
TETRAHYDROFURFURYL ALCOHOL

> <Source>
DSSTox2DMolFile

> <Tox>
-0.096

> <CAS>
97-99-4

$$$$

  CDK

  7  7  0  0  0  0  0  0  0  0999 V2000
    0.0000   -1.5998    0.0000 O   0  0  0  0  0  0  0  0  0  0  0  0
    1.1503   -2.2653    0.0000 C   0  0  0  0  0  0  0  0  0  0  0  0
    2.3050   -1.5998    0.0000 C   0  0  0  0  0  0  0  0  0  0  0  0
    2.4416   -0.2777    0.0000 C   0  0  0  0  0  0  0  0  0  0  0  0
    3.5169   -2.1419    0.0000 O   0  0  0  0  0  0  0  0  0  0  0  0
    3.7417   -0.0000    0.0000 C   0  0  0  0  0  0  0  0  0  0  0  0
    4.4072   -1.1547    0.0000 C   0  0  0  0  0  0  0  0  0  0  0  0
  1  2  2  0  0  0  0 
  2  3  1  0  0  0  0 
  3  4  2  0  0  0  0 
  3  5  1  0  0  0  0 
  4  6  1  0  0  0  0 
  7  5  1  0  0  0  0 
  6  7  2  0  0  0  0 
M  END
> <Name>
FUFURAL

> <Source>
DSSTox2DMolFile

> <Tox>
0.344

> <CAS>
98-01-1

$$$$

  CDK

 10 10  0  0  0  0  0  0  0  0999 V2000
    0.0061   -0.0321    0.0001 C   0  0  0  0  0  0  0  0  0  0  0  0
    0.7349   -1.2222    0.0001 C   0  0  0  0  0  0  0  0  0  0  0  0
    0.7083    1.1793    0.0001 C   0  0  0  0  0  0  0  0  0  0  0  0
   -1.5106   -0.0048    0.0000 C   0  0  0  0  0  0  0  0  0  0  0  0
    2.1264   -1.2026    0.0001 C   0  0  0  0  0  0  0  0  0  0  0  0
    2.0966    1.1984    0.0000 C   0  0  0  0  0  0  0  0  0  0  0  0
   -1.9967    0.7343    1.2502 C   0  0  0  0  0  0  0  0  0  0  0  0
   -1.9963    0.7281   -1.2539 C   0  0  0  0  0  0  0  0  0  0  0  0
   -2.1352   -1.4011    0.0034 C   0  0  0  0  0  0  0  0  0  0  0  0
    2.8117    0.0053    0.0000 C   0  0  0  0  0  0  0  0  0  0  0  0
  1  2  1  0  0  0  0 
  1  3  2  0  0  0  0 
  1  4  1  0  0  0  0 
  2  5  2  0  0  0  0 
  6  3  1  0  0  0  0 
  4  7  1  0  0  0  0 
  4  8  1  0  0  0  0 
  4  9  1  0  0  0  0 
  5 10  1  0  0  0  0 
 10  6  2  0  0  0  0 
M  END
> <Name>
T-BUTYLBENZENE

> <Source>
DougDB3DMolFile

> <Tox>
0.342

> <CAS>
98-06-6

$$$$

  CDK

 10 10  0  0  0  0  0  0  0  0999 V2000
    3.9873   -0.0000    0.0000 Cl  0  0  0  0  0  0  0  0  0  0  0  0
    3.9873   -1.3291    0.0000 C   0  0  0  0  0  0  0  0  0  0  0  0
    2.6582   -1.3291    0.0000 C   0  0  0  0  0  0  0  0  0  0  0  0
    5.3164   -1.3291    0.0000 Cl  0  0  0  0  0  0  0  0  0  0  0  0
    3.9873   -2.6582    0.0000 Cl  0  0  0  0  0  0  0  0  0  0  0  0
    1.9936   -2.4827    0.0000 C   0  0  0  0  0  0  0  0  0  0  0  0
    1.9936   -0.1754    0.0000 C   0  0  0  0  0  0  0  0  0  0  0  0
    0.6645   -2.4827    0.0000 C   0  0  0  0  0  0  0  0  0  0  0  0
    0.6645   -0.1754    0.0000 C   0  0  0  0  0  0  0  0  0  0  0  0
    0.0000   -1.3291    0.0000 C   0  0  0  0  0  0  0  0  0  0  0  0
  1  2  1  0  0  0  0 
  2  3  1  0  0  0  0 
  2  4  1  0  0  0  0 
  2  5  1  0  0  0  0 
  3  6  2  0  0  0  0 
  3  7  1  0  0  0  0 
  6  8  1  0  0  0  0 
  9  7  2  0  0  0  0 
  8 10  2  0  0  0  0 
 10  9  1  0  0  0  0 
M  END
> <Name>
BENZOTRICHLORIDE

> <Source>
DSSTox2DMolFile

> <Tox>
-0.383

> <CAS>
98-07-7

$$$$

  CDK

 10 10  0  0  0  0  0  0  0  0999 V2000
    3.9872   -1.3291    0.0000 Si  0  0  0  0  0  0  0  0  0  0  0  0
    3.9872   -0.0000    0.0000 Cl  0  0  0  0  0  0  0  0  0  0  0  0
    3.9872   -2.6582    0.0000 Cl  0  0  0  0  0  0  0  0  0  0  0  0
    5.3163   -1.3291    0.0000 Cl  0  0  0  0  0  0  0  0  0  0  0  0
    2.6582   -1.3291    0.0000 C   0  0  0  0  0  0  0  0  0  0  0  0
    2.0042   -2.4827    0.0000 C   0  0  0  0  0  0  0  0  0  0  0  0
    2.0042   -0.1754    0.0000 C   0  0  0  0  0  0  0  0  0  0  0  0
    0.6752   -2.4827    0.0000 C   0  0  0  0  0  0  0  0  0  0  0  0
    0.6752   -0.1754    0.0000 C   0  0  0  0  0  0  0  0  0  0  0  0
    0.0000   -1.3291    0.0000 C   0  0  0  0  0  0  0  0  0  0  0  0
  1  2  1  0  0  0  0 
  1  3  1  0  0  0  0 
  1  4  1  0  0  0  0 
  1  5  1  0  0  0  0 
  5  6  2  0  0  0  0 
  5  7  1  0  0  0  0 
  6  8  1  0  0  0  0 
  7  9  2  0  0  0  0 
  8 10  2  0  0  0  0 
  9 10  1  0  0  0  0 
M  END
> <Name>
PHENYLTRICHLOROSILANE

> <Source>
DSSTox2DMolFile

> <Tox>
-0.371

> <CAS>
98-13-5

$$$$

  CDK

 12 12  0  0  0  0  0  0  0  0999 V2000
    0.0000    0.0000    0.0000 C   0  0  0  0  0  0  0  0  0  0  0  0
   -0.0400    0.1600   -1.5200 C   0  0  0  0  0  0  0  0  0  0  0  0
    0.7600   -0.9000   -2.2400 C   0  0  0  0  0  0  0  0  0  0  0  0
   -1.4800    0.3000   -2.0600 C   0  0  0  0  0  0  0  0  0  0  0  0
    0.6400    1.4800   -1.5000 C   0  0  0  0  0  0  0  0  0  0  0  0
   -0.0800    2.6600   -1.6400 C   0  0  0  0  0  0  0  0  0  0  0  0
    2.0400    1.5400   -1.3600 C   0  0  0  0  0  0  0  0  0  0  0  0
    0.5800    3.9200   -1.6200 C   0  0  0  0  0  0  0  0  0  0  0  0
    2.7000    2.7800   -1.3600 C   0  0  0  0  0  0  0  0  0  0  0  0
   -0.2200    5.1600   -1.7600 C   0  0  0  0  0  0  0  0  0  0  0  0
    1.9800    3.9600   -1.4800 C   0  0  0  0  0  0  0  0  0  0  0  0
    2.6000    5.1200   -1.4800 O   0  0  0  0  0  0  0  0  0  0  0  0
  1  2  1  0  0  0  0 
  2  3  1  0  0  0  0 
  2  4  1  0  0  0  0 
  2  5  1  0  0  0  0 
  5  6  2  0  0  0  0 
  5  7  1  0  0  0  0 
  6  8  1  0  0  0  0 
  9  7  2  0  0  0  0 
  8 10  1  0  0  0  0 
  8 11  2  0  0  0  0 
 11  9  1  0  0  0  0 
 11 12  1  0  0  0  0 
M  END
> <Name>
4-(T-BUTYL)-2-CRESOL

> <Source>
NIH3DMolFile

> <Tox>
-1.550

> <CAS>
98-27-1

$$$$

  CDK

 13 13  0  0  0  0  0  0  0  0999 V2000
    1.1537   -2.6598    0.0000 C   0  0  0  0  0  0  0  0  0  0  0  0
    0.4836   -1.5061    0.0000 F   0  0  0  0  0  0  0  0  0  0  0  0
    1.8170   -3.8066    0.0000 F   0  0  0  0  0  0  0  0  0  0  0  0
    0.0000   -3.3230    0.0000 F   0  0  0  0  0  0  0  0  0  0  0  0
    2.3006   -1.9897    0.0000 C   0  0  0  0  0  0  0  0  0  0  0  0
    2.3006   -0.6632    0.0000 C   0  0  0  0  0  0  0  0  0  0  0  0
    3.4543   -2.6598    0.0000 C   0  0  0  0  0  0  0  0  0  0  0  0
    3.4543   -0.0000    0.0000 C   0  0  0  0  0  0  0  0  0  0  0  0
    4.6080   -1.9897    0.0000 C   0  0  0  0  0  0  0  0  0  0  0  0
    4.6080   -0.6632    0.0000 C   0  0  0  0  0  0  0  0  0  0  0  0
    5.7549   -2.6598    0.0000 N   0  0  0  0  0  0  0  0  0  0  0  0
    5.7549   -3.9863    0.0000 O   0  0  0  0  0  0  0  0  0  0  0  0
    6.9086   -1.9897    0.0000 O   0  0  0  0  0  0  0  0  0  0  0  0
  1  2  1  0  0  0  0 
  1  3  1  0  0  0  0 
  1  4  1  0  0  0  0 
  1  5  1  0  0  0  0 
  5  6  2  0  0  0  0 
  5  7  1  0  0  0  0 
  6  8  1  0  0  0  0 
  9  7  2  0  0  0  0 
  8 10  2  0  0  0  0 
 10  9  1  0  0  0  0 
  9 11  1  0  0  0  0 
 11 12  2  0  0  0  0 
 11 13  1  0  0  0  0 
M  CHG  1  11   1
M  CHG  1  13  -1
M  END
> <Name>
M-TRIFLUOROMETHYLNITROBENZENE

> <Source>
DSSTox2DMolFile

> <Tox>
-0.587

> <CAS>
98-46-4

$$$$

  CDK

 11 11  0  0  0  0  0  0  0  0999 V2000
    5.3217   -1.3304    0.0000 C   0  0  0  0  0  0  0  0  0  0  0  0
    3.9913   -1.3304    0.0000 C   0  0  0  0  0  0  0  0  0  0  0  0
    5.3217   -0.0000    0.0000 C   0  0  0  0  0  0  0  0  0  0  0  0
    6.6521   -1.3304    0.0000 C   0  0  0  0  0  0  0  0  0  0  0  0
    5.3217   -2.6609    0.0000 C   0  0  0  0  0  0  0  0  0  0  0  0
    3.3261   -2.4813    0.0000 C   0  0  0  0  0  0  0  0  0  0  0  0
    3.3261   -0.1796    0.0000 C   0  0  0  0  0  0  0  0  0  0  0  0
    1.9956   -2.4813    0.0000 C   0  0  0  0  0  0  0  0  0  0  0  0
    1.9956   -0.1796    0.0000 C   0  0  0  0  0  0  0  0  0  0  0  0
    1.3304   -1.3304    0.0000 C   0  0  0  0  0  0  0  0  0  0  0  0
    0.0000   -1.3304    0.0000 O   0  0  0  0  0  0  0  0  0  0  0  0
  1  2  1  0  0  0  0 
  1  3  1  0  0  0  0 
  1  4  1  0  0  0  0 
  1  5  1  0  0  0  0 
  2  6  2  0  0  0  0 
  2  7  1  0  0  0  0 
  6  8  1  0  0  0  0 
  9  7  2  0  0  0  0 
  8 10  2  0  0  0  0 
 10  9  1  0  0  0  0 
 10 11  1  0  0  0  0 
M  END
> <Name>
P-T-BUTYLYPHENOL

> <Source>
DSSTox2DMolFile

> <Tox>
-1.419

> <CAS>
98-54-4

$$$$

  CDK

 11 11  0  0  0  0  0  0  0  0999 V2000
    5.3217   -1.3304    0.0000 C   0  0  0  0  0  0  0  0  0  0  0  0
    5.3217   -2.6609    0.0000 F   0  0  0  0  0  0  0  0  0  0  0  0
    5.3217   -0.0000    0.0000 F   0  0  0  0  0  0  0  0  0  0  0  0
    6.6521   -1.3304    0.0000 F   0  0  0  0  0  0  0  0  0  0  0  0
    3.9913   -1.3304    0.0000 C   0  0  0  0  0  0  0  0  0  0  0  0
    3.3261   -2.4813    0.0000 C   0  0  0  0  0  0  0  0  0  0  0  0
    3.3261   -0.1796    0.0000 C   0  0  0  0  0  0  0  0  0  0  0  0
    1.9956   -2.4813    0.0000 C   0  0  0  0  0  0  0  0  0  0  0  0
    1.9956   -0.1796    0.0000 C   0  0  0  0  0  0  0  0  0  0  0  0
    1.3304   -1.3304    0.0000 C   0  0  0  0  0  0  0  0  0  0  0  0
    0.0000   -1.3304    0.0000 Cl  0  0  0  0  0  0  0  0  0  0  0  0
  1  2  1  0  0  0  0 
  1  3  1  0  0  0  0 
  1  4  1  0  0  0  0 
  1  5  1  0  0  0  0 
  5  6  2  0  0  0  0 
  5  7  1  0  0  0  0 
  6  8  1  0  0  0  0 
  9  7  2  0  0  0  0 
  8 10  2  0  0  0  0 
 10  9  1  0  0  0  0 
 10 11  1  0  0  0  0 
M  END
> <Name>
4-(TRIFLUOROMETHYL)CHLOROBENZENE

> <Source>
DSSTox2DMolFile

> <Tox>
0.883

> <CAS>
98-56-6

$$$$

  CDK

  9  9  0  0  0  0  0  0  0  0999 V2000
    0.6655   -1.1542    0.0000 C   0  0  0  0  0  0  0  0  0  0  0  0
    0.0000   -2.3037    0.0000 C   0  0  0  0  0  0  0  0  0  0  0  0
    0.0000   -0.0000    0.0000 C   0  0  0  0  0  0  0  0  0  0  0  0
    1.9965   -1.1542    0.0000 C   0  0  0  0  0  0  0  0  0  0  0  0
    2.6574   -0.0000    0.0000 C   0  0  0  0  0  0  0  0  0  0  0  0
    2.6574   -2.3037    0.0000 C   0  0  0  0  0  0  0  0  0  0  0  0
    3.9884   -0.0000    0.0000 C   0  0  0  0  0  0  0  0  0  0  0  0
    3.9884   -2.3037    0.0000 C   0  0  0  0  0  0  0  0  0  0  0  0
    4.6539   -1.1542    0.0000 C   0  0  0  0  0  0  0  0  0  0  0  0
  1  2  1  0  0  0  0 
  1  3  2  0  0  0  0 
  1  4  1  0  0  0  0 
  4  5  2  0  0  0  0 
  4  6  1  0  0  0  0 
  5  7  1  0  0  0  0 
  8  6  2  0  0  0  0 
  7  9  2  0  0  0  0 
  9  8  1  0  0  0  0 
M  END
> <Name>
ALPHA-METHYLSTYRENE

> <Source>
DSSTox2DMolFile

> <Tox>
0.279

> <CAS>
98-83-9

$$$$

  CDK

  9  9  0  0  0  0  0  0  0  0999 V2000
    2.6574   -0.0000    0.0000 C   0  0  0  0  0  0  0  0  0  0  0  0
    3.9884   -0.0000    0.0000 C   0  0  0  0  0  0  0  0  0  0  0  0
    1.9965   -1.1542    0.0000 C   0  0  0  0  0  0  0  0  0  0  0  0
    4.6539   -1.1542    0.0000 C   0  0  0  0  0  0  0  0  0  0  0  0
    2.6574   -2.3037    0.0000 C   0  0  0  0  0  0  0  0  0  0  0  0
    0.6655   -1.1542    0.0000 C   0  0  0  0  0  0  0  0  0  0  0  0
    3.9884   -2.3037    0.0000 C   0  0  0  0  0  0  0  0  0  0  0  0
    0.0000   -2.3037    0.0000 O   0  0  0  0  0  0  0  0  0  0  0  0
    0.0000   -0.0000    0.0000 C   0  0  0  0  0  0  0  0  0  0  0  0
  1  2  2  0  0  0  0 
  1  3  1  0  0  0  0 
  2  4  1  0  0  0  0 
  5  3  2  0  0  0  0 
  3  6  1  0  0  0  0 
  4  7  2  0  0  0  0 
  7  5  1  0  0  0  0 
  6  8  2  0  0  0  0 
  6  9  1  0  0  0  0 
M  END
> <Name>
ACETOPHENONE

> <Source>
DSSTox2DMolFile

> <Tox>
-0.401

> <CAS>
98-86-2

$$$$

  CDK

  9  9  0  0  0  0  0  0  0  0999 V2000
    1.9965   -1.1542    0.0000 C   0  0  0  0  0  0  0  0  0  0  0  0
    2.6574   -0.0000    0.0000 C   0  0  0  0  0  0  0  0  0  0  0  0
    2.6574   -2.3037    0.0000 C   0  0  0  0  0  0  0  0  0  0  0  0
    0.6655   -1.1542    0.0000 C   0  0  0  0  0  0  0  0  0  0  0  0
    3.9884   -0.0000    0.0000 C   0  0  0  0  0  0  0  0  0  0  0  0
    3.9884   -2.3037    0.0000 C   0  0  0  0  0  0  0  0  0  0  0  0
    0.0000   -2.3037    0.0000 Cl  0  0  0  0  0  0  0  0  0  0  0  0
    0.0000   -0.0000    0.0000 Cl  0  0  0  0  0  0  0  0  0  0  0  0
    4.6539   -1.1542    0.0000 C   0  0  0  0  0  0  0  0  0  0  0  0
  1  2  2  0  0  0  0 
  1  3  1  0  0  0  0 
  1  4  1  0  0  0  0 
  2  5  1  0  0  0  0 
  6  3  2  0  0  0  0 
  4  7  1  0  0  0  0 
  4  8  1  0  0  0  0 
  5  9  2  0  0  0  0 
  9  6  1  0  0  0  0 
M  END
> <Name>
(DICHLOROMETHYL)BENZENE

> <Source>
DSSTox2DMolFile

> <Tox>
-0.328

> <CAS>
98-87-3

$$$$

  CDK

  9  9  0  0  0  0  0  0  0  0999 V2000
    4.6727   -0.0000    0.0000 Cl  0  0  0  0  0  0  0  0  0  0  0  0
    3.9998   -1.1401    0.0000 C   0  0  0  0  0  0  0  0  0  0  0  0
    4.6727   -2.2943    0.0000 O   0  0  0  0  0  0  0  0  0  0  0  0
    2.6634   -1.1401    0.0000 C   0  0  0  0  0  0  0  0  0  0  0  0
    2.0093   -2.2943    0.0000 C   0  0  0  0  0  0  0  0  0  0  0  0
    2.0093   -0.0000    0.0000 C   0  0  0  0  0  0  0  0  0  0  0  0
    0.6729   -2.2943    0.0000 C   0  0  0  0  0  0  0  0  0  0  0  0
    0.6729   -0.0000    0.0000 C   0  0  0  0  0  0  0  0  0  0  0  0
    0.0000   -1.1401    0.0000 C   0  0  0  0  0  0  0  0  0  0  0  0
  1  2  1  0  0  0  0 
  2  3  2  0  0  0  0 
  2  4  1  0  0  0  0 
  4  5  2  0  0  0  0 
  4  6  1  0  0  0  0 
  5  7  1  0  0  0  0 
  6  8  2  0  0  0  0 
  7  9  2  0  0  0  0 
  8  9  1  0  0  0  0 
M  END
> <Name>
BENZOYL CHLORIDE

> <Source>
DSSTox2DMolFile

> <Tox>
-0.155

> <CAS>
98-88-4

$$$$

  CDK

 10 10  0  0  0  0  0  0  0  0999 V2000
    0.0000   -3.4536    0.0000 O   0  0  0  0  0  0  0  0  0  0  0  0
    0.6656   -2.3040    0.0000 C   0  0  0  0  0  0  0  0  0  0  0  0
    1.9968   -2.3040    0.0000 C   0  0  0  0  0  0  0  0  0  0  0  0
    0.0000   -1.1497    0.0000 O   0  0  0  0  0  0  0  0  0  0  0  0
    2.6577   -1.1497    0.0000 C   0  0  0  0  0  0  0  0  0  0  0  0
    2.6577   -3.4536    0.0000 C   0  0  0  0  0  0  0  0  0  0  0  0
    3.9889   -1.1497    0.0000 C   0  0  0  0  0  0  0  0  0  0  0  0
    3.9889   -3.4536    0.0000 C   0  0  0  0  0  0  0  0  0  0  0  0
    4.6545   -0.0000    0.0000 C   0  0  0  0  0  0  0  0  0  0  0  0
    4.6545   -2.3040    0.0000 C   0  0  0  0  0  0  0  0  0  0  0  0
  1  2  2  0  0  0  0 
  2  3  1  0  0  0  0 
  2  4  1  0  0  0  0 
  3  5  2  0  0  0  0 
  3  6  1  0  0  0  0 
  5  7  1  0  0  0  0 
  8  6  2  0  0  0  0 
  7  9  1  0  0  0  0 
  7 10  2  0  0  0  0 
 10  8  1  0  0  0  0 
M  END
> <Name>
M-TOLUIC ACID

> <Source>
DSSTox2DMolFile

> <Tox>
-3.627

> <CAS>
99-04-7

$$$$

  CDK

 10 10  0  0  0  0  0  0  0  0999 V2000
    0.0000   -0.0000    0.0000 C   0  0  0  0  0  0  0  0  0  0  0  0
    0.6656   -1.1497    0.0000 C   0  0  0  0  0  0  0  0  0  0  0  0
    1.9968   -1.1497    0.0000 C   0  0  0  0  0  0  0  0  0  0  0  0
    0.0000   -2.3040    0.0000 C   0  0  0  0  0  0  0  0  0  0  0  0
    2.6577   -2.3040    0.0000 C   0  0  0  0  0  0  0  0  0  0  0  0
    0.6656   -3.4536    0.0000 C   0  0  0  0  0  0  0  0  0  0  0  0
    3.9889   -2.3040    0.0000 N   0  0  0  0  0  0  0  0  0  0  0  0
    1.9968   -3.4536    0.0000 C   0  0  0  0  0  0  0  0  0  0  0  0
    4.6545   -3.4536    0.0000 O   0  0  0  0  0  0  0  0  0  0  0  0
    4.6545   -1.1497    0.0000 O   0  0  0  0  0  0  0  0  0  0  0  0
  1  2  1  0  0  0  0 
  2  3  2  0  0  0  0 
  2  4  1  0  0  0  0 
  3  5  1  0  0  0  0 
  6  4  2  0  0  0  0 
  5  7  1  0  0  0  0 
  5  8  2  0  0  0  0 
  8  6  1  0  0  0  0 
  7  9  2  0  0  0  0 
  7 10  1  0  0  0  0 
M  CHG  1   7   1
M  CHG  1  10  -1
M  END
> <Name>
3-NITROTOLUENE

> <Source>
DSSTox2DMolFile

> <Tox>
-0.688

> <CAS>
99-08-1

$$$$

  CDK

 10 10  0  0  0  0  0  0  0  0999 V2000
    3.9889   -2.3040    0.0000 N   0  0  0  0  0  0  0  0  0  0  0  0
    4.6545   -3.4536    0.0000 O   0  0  0  0  0  0  0  0  0  0  0  0
    4.6545   -1.1497    0.0000 O   0  0  0  0  0  0  0  0  0  0  0  0
    2.6577   -2.3040    0.0000 C   0  0  0  0  0  0  0  0  0  0  0  0
    1.9968   -3.4536    0.0000 C   0  0  0  0  0  0  0  0  0  0  0  0
    1.9968   -1.1497    0.0000 C   0  0  0  0  0  0  0  0  0  0  0  0
    0.6656   -3.4536    0.0000 C   0  0  0  0  0  0  0  0  0  0  0  0
    0.6656   -1.1497    0.0000 C   0  0  0  0  0  0  0  0  0  0  0  0
    0.0000   -2.3040    0.0000 C   0  0  0  0  0  0  0  0  0  0  0  0
    0.0000   -0.0000    0.0000 N   0  0  0  0  0  0  0  0  0  0  0  0
  1  2  2  0  0  0  0 
  1  3  1  0  0  0  0 
  1  4  1  0  0  0  0 
  4  5  2  0  0  0  0 
  4  6  1  0  0  0  0 
  5  7  1  0  0  0  0 
  8  6  2  0  0  0  0 
  7  9  2  0  0  0  0 
  9  8  1  0  0  0  0 
  8 10  1  0  0  0  0 
M  CHG  1   1   1
M  CHG  1   3  -1
M  END
> <Name>
3-NITROANILINE

> <Source>
DSSTox2DMolFile

> <Tox>
-4.020

> <CAS>
99-09-2

$$$$

  CDK

 15 15  0  0  0  0  0  0  0  0999 V2000
    3.4662   -0.6724    0.0000 N   0  0  0  0  0  0  0  0  0  0  0  0
    3.4662   -1.9965    0.0000 C   0  0  0  0  0  0  0  0  0  0  0  0
    4.6378   -0.0277    0.0000 O   0  0  0  0  0  0  0  0  0  0  0  0
    2.3501   -0.0000    0.0000 O   0  0  0  0  0  0  0  0  0  0  0  0
    2.3016   -2.6620    0.0000 C   0  0  0  0  0  0  0  0  0  0  0  0
    4.6100   -2.6620    0.0000 C   0  0  0  0  0  0  0  0  0  0  0  0
    2.3085   -3.9861    0.0000 C   0  0  0  0  0  0  0  0  0  0  0  0
    4.6100   -3.9861    0.0000 C   0  0  0  0  0  0  0  0  0  0  0  0
    1.1438   -4.6586    0.0000 N   0  0  0  0  0  0  0  0  0  0  0  0
    3.4662   -4.6516    0.0000 C   0  0  0  0  0  0  0  0  0  0  0  0
    5.7747   -4.6655    0.0000 N   0  0  0  0  0  0  0  0  0  0  0  0
    0.0000   -4.0000    0.0000 O   0  0  0  0  0  0  0  0  0  0  0  0
    1.1438   -5.9965    0.0000 O   0  0  0  0  0  0  0  0  0  0  0  0
    5.7678   -5.9965    0.0000 O   0  0  0  0  0  0  0  0  0  0  0  0
    6.9324   -4.0069    0.0000 O   0  0  0  0  0  0  0  0  0  0  0  0
  1  2  1  0  0  0  0 
  1  3  1  0  0  0  0 
  1  4  2  0  0  0  0 
  2  5  2  0  0  0  0 
  2  6  1  0  0  0  0 
  7  5  1  0  0  0  0 
  8  6  2  0  0  0  0 
  9  7  1  0  0  0  0 
  7 10  2  0  0  0  0 
 11  8  1  0  0  0  0 
  8 10  1  0  0  0  0 
  9 12  1  0  0  0  0 
  9 13  2  0  0  0  0 
 11 14  1  0  0  0  0 
 11 15  2  0  0  0  0 
M  CHG  1   1   1
M  CHG  1   3  -1
M  CHG  1   9   1
M  CHG  1  11   1
M  CHG  1  12  -1
M  CHG  1  14  -1
M  END
> <Name>
1,3,5-TRINITROBENZENE

> <Source>
DSSTox2DMolFile

> <Tox>
-5.191

> <CAS>
99-35-4

$$$$

  CDK

 13 13  0  0  0  0  0  0  0  0999 V2000
   -4.8104   -0.5449    0.0186 Cl  0  0  0  0  0  0  0  0  0  0  0  0
   -3.3381    0.4475   -0.0094 C   0  0  0  0  0  0  0  0  0  0  0  0
   -2.0728   -0.4175   -0.0063 C   0  0  0  0  0  0  0  0  0  0  0  0
   -2.1657   -1.6620   -0.0080 O   0  0  0  0  0  0  0  0  0  0  0  0
   -0.7675    0.2237   -0.0023 C   0  0  0  0  0  0  0  0  0  0  0  0
    0.3912   -0.5529   -0.0010 C   0  0  0  0  0  0  0  0  0  0  0  0
   -0.6744    1.6155   -0.0014 C   0  0  0  0  0  0  0  0  0  0  0  0
    1.6431    0.0625    0.0012 C   0  0  0  0  0  0  0  0  0  0  0  0
    0.5773    2.2308    0.0008 C   0  0  0  0  0  0  0  0  0  0  0  0
    2.8235   -0.7271    0.0016 N   0  0  0  0  0  0  0  0  0  0  0  0
    1.7360    1.4543    0.0020 C   0  0  0  0  0  0  0  0  0  0  0  0
    3.9391   -0.1526    0.0028 O   0  0  0  0  0  0  0  0  0  0  0  0
    2.7186   -1.9774    0.0013 O   0  0  0  0  0  0  0  0  0  0  0  0
  1  2  1  0  0  0  0 
  3  2  1  0  0  0  0 
  4  3  2  0  0  0  0 
  5  3  1  0  0  0  0 
  5  6  2  0  0  0  0 
  5  7  1  0  0  0  0 
  6  8  1  0  0  0  0 
  7  9  2  0  0  0  0 
 10  8  1  0  0  0  0 
  8 11  2  0  0  0  0 
 11  9  1  0  0  0  0 
 12 10  1  0  0  0  0 
 13 10  2  0  0  0  0 
M  CHG  1  10   1
M  CHG  1  12  -1
M  END
> <Name>
ALPHA-CHLORO-M-NITROACETOPHENONE

> <Source>
Chemidplus3DMolFile

> <Tox>
-5.060

> <CAS>
99-47-8

$$$$

  CDK

 11 11  0  0  0  0  0  0  0  0999 V2000
    5.9835   -2.3037    0.0000 C   0  0  0  0  0  0  0  0  0  0  0  0
    4.6552   -2.3037    0.0000 C   0  0  0  0  0  0  0  0  0  0  0  0
    3.9910   -3.4525    0.0000 C   0  0  0  0  0  0  0  0  0  0  0  0
    3.9910   -1.1488    0.0000 C   0  0  0  0  0  0  0  0  0  0  0  0
    2.6567   -3.4525    0.0000 C   0  0  0  0  0  0  0  0  0  0  0  0
    2.6567   -1.1488    0.0000 C   0  0  0  0  0  0  0  0  0  0  0  0
    4.6552   -0.0000    0.0000 C   0  0  0  0  0  0  0  0  0  0  0  0
    1.9925   -2.3037    0.0000 C   0  0  0  0  0  0  0  0  0  0  0  0
    0.6642   -2.3037    0.0000 N   0  0  0  0  0  0  0  0  0  0  0  0
    0.0000   -3.4525    0.0000 O   0  0  0  0  0  0  0  0  0  0  0  0
    0.0000   -1.1488    0.0000 O   0  0  0  0  0  0  0  0  0  0  0  0
  1  2  1  0  0  0  0 
  2  3  2  0  0  0  0 
  2  4  1  0  0  0  0 
  3  5  1  0  0  0  0 
  6  4  2  0  0  0  0 
  4  7  1  0  0  0  0 
  5  8  2  0  0  0  0 
  8  6  1  0  0  0  0 
  8  9  1  0  0  0  0 
  9 10  1  0  0  0  0 
  9 11  2  0  0  0  0 
M  CHG  1   9   1
M  CHG  1  10  -1
M  END
> <Name>
1,2-DIMETHYL-4-NITROBENZENE

> <Source>
DSSTox2DMolFile

> <Tox>
-2.445

> <CAS>
99-51-4

$$$$

  CDK

 11 11  0  0  0  0  0  0  0  0999 V2000
    5.3194   -2.3037    0.0000 N   0  0  0  0  0  0  0  0  0  0  0  0
    5.9835   -1.1488    0.0000 O   0  0  0  0  0  0  0  0  0  0  0  0
    5.9835   -3.4525    0.0000 O   0  0  0  0  0  0  0  0  0  0  0  0
    3.9910   -2.3037    0.0000 C   0  0  0  0  0  0  0  0  0  0  0  0
    3.3269   -3.4525    0.0000 C   0  0  0  0  0  0  0  0  0  0  0  0
    3.3269   -1.1488    0.0000 C   0  0  0  0  0  0  0  0  0  0  0  0
    1.9925   -3.4525    0.0000 C   0  0  0  0  0  0  0  0  0  0  0  0
    1.9925   -1.1488    0.0000 C   0  0  0  0  0  0  0  0  0  0  0  0
    1.3283   -2.3037    0.0000 C   0  0  0  0  0  0  0  0  0  0  0  0
    1.3283   -0.0000    0.0000 Cl  0  0  0  0  0  0  0  0  0  0  0  0
    0.0000   -2.3037    0.0000 Cl  0  0  0  0  0  0  0  0  0  0  0  0
  1  2  2  0  0  0  0 
  1  3  1  0  0  0  0 
  1  4  1  0  0  0  0 
  4  5  2  0  0  0  0 
  4  6  1  0  0  0  0 
  5  7  1  0  0  0  0 
  8  6  2  0  0  0  0 
  7  9  2  0  0  0  0 
  9  8  1  0  0  0  0 
  8 10  1  0  0  0  0 
  9 11  1  0  0  0  0 
M  CHG  1   1   1
M  CHG  1   3  -1
M  END
> <Name>
3,4-DICHLORONITROBENZENE

> <Source>
DSSTox2DMolFile

> <Tox>
-1.987

> <CAS>
99-54-7

$$$$

  CDK

 11 11  0  0  0  0  0  0  0  0999 V2000
    2.6447   -1.0919    0.0000 C   0  0  0  0  0  0  0  0  0  0  0  0
    1.4807   -0.1642    0.0000 C   0  0  0  0  0  0  0  0  0  0  0  0
    3.7930   -0.7138    0.0000 O   0  0  0  0  0  0  0  0  0  0  0  0
    0.1955   -0.7052    0.0000 C   0  0  0  0  0  0  0  0  0  0  0  0
    1.6549    1.2210    0.0000 C   0  0  0  0  0  0  0  0  0  0  0  0
   -0.9183    0.1407    0.0000 C   0  0  0  0  0  0  0  0  0  0  0  0
    0.5455    2.0602    0.0000 C   0  0  0  0  0  0  0  0  0  0  0  0
   -0.7383    1.5303    0.0000 C   0  0  0  0  0  0  0  0  0  0  0  0
   -2.3005   -0.4385    0.0000 N   0  0  0  0  0  0  0  0  0  0  0  0
   -3.2591    0.3072    0.0000 O   0  0  0  0  0  0  0  0  0  0  0  0
   -2.4383   -1.6456    0.0000 O   0  0  0  0  0  0  0  0  0  0  0  0
  1  2  1  0  0  0  0 
  1  3  2  0  0  0  0 
  2  4  1  0  0  0  0 
  2  5  2  0  0  0  0 
  4  6  2  0  0  0  0 
  7  5  1  0  0  0  0 
  6  8  1  0  0  0  0 
  6  9  1  0  0  0  0 
  8  7  2  0  0  0  0 
  9 10  2  0  0  0  0 
  9 11  1  0  0  0  0 
M  CHG  1   9   1
M  CHG  1  11  -1
M  END
> <Name>
M-NITROBENZALDEHYDE

> <Source>
DougDB3DMolFile

> <Tox>
-2.140

> <CAS>
99-61-6

$$$$

  CDK

 12 12  0  0  0  0  0  0  0  0999 V2000
    4.5984   -2.0023    0.0000 C   0  0  0  0  0  0  0  0  0  0  0  0
    4.5984   -3.3348    0.0000 C   0  0  0  0  0  0  0  0  0  0  0  0
    3.4453   -1.3326    0.0000 C   0  0  0  0  0  0  0  0  0  0  0  0
    5.7514   -1.3326    0.0000 C   0  0  0  0  0  0  0  0  0  0  0  0
    3.4453   -3.9908    0.0000 C   0  0  0  0  0  0  0  0  0  0  0  0
    2.3061   -2.0023    0.0000 C   0  0  0  0  0  0  0  0  0  0  0  0
    5.7514   -0.0000    0.0000 C   0  0  0  0  0  0  0  0  0  0  0  0
    6.9044   -2.0023    0.0000 C   0  0  0  0  0  0  0  0  0  0  0  0
    2.3061   -3.3348    0.0000 C   0  0  0  0  0  0  0  0  0  0  0  0
    1.1530   -1.3326    0.0000 C   0  0  0  0  0  0  0  0  0  0  0  0
    0.0000   -2.0023    0.0000 C   0  0  0  0  0  0  0  0  0  0  0  0
    1.1530   -0.0000    0.0000 C   0  0  0  0  0  0  0  0  0  0  0  0
  1  2  2  0  0  0  0 
  1  3  1  0  0  0  0 
  1  4  1  0  0  0  0 
  2  5  1  0  0  0  0 
  6  3  2  0  0  0  0 
  4  7  1  0  0  0  0 
  4  8  1  0  0  0  0 
  5  9  2  0  0  0  0 
  9  6  1  0  0  0  0 
  6 10  1  0  0  0  0 
 10 11  1  0  0  0  0 
 10 12  1  0  0  0  0 
M  END
> <Name>
1,3-DIISOPROPYLBENZENE

> <Source>
DSSTox2DMolFile

> <Tox>
-0.406

> <CAS>
99-62-7

$$$$

  CDK

 12 12  0  0  0  0  0  0  0  0999 V2000
    3.9905   -2.3033    0.0000 C   0  0  0  0  0  0  0  0  0  0  0  0
    4.6546   -3.4580    0.0000 C   0  0  0  0  0  0  0  0  0  0  0  0
    2.6563   -2.3033    0.0000 C   0  0  0  0  0  0  0  0  0  0  0  0
    4.6546   -1.1547    0.0000 N   0  0  0  0  0  0  0  0  0  0  0  0
    3.9905   -4.6067    0.0000 C   0  0  0  0  0  0  0  0  0  0  0  0
    1.9922   -3.4580    0.0000 C   0  0  0  0  0  0  0  0  0  0  0  0
    3.9905   -0.0000    0.0000 O   0  0  0  0  0  0  0  0  0  0  0  0
    5.9827   -1.1547    0.0000 O   0  0  0  0  0  0  0  0  0  0  0  0
    2.6563   -4.6067    0.0000 C   0  0  0  0  0  0  0  0  0  0  0  0
    0.6641   -3.4580    0.0000 N   0  0  0  0  0  0  0  0  0  0  0  0
    0.0000   -4.6067    0.0000 O   0  0  0  0  0  0  0  0  0  0  0  0
    0.0000   -2.3033    0.0000 O   0  0  0  0  0  0  0  0  0  0  0  0
  1  2  2  0  0  0  0 
  1  3  1  0  0  0  0 
  1  4  1  0  0  0  0 
  2  5  1  0  0  0  0 
  6  3  2  0  0  0  0 
  4  7  1  0  0  0  0 
  4  8  2  0  0  0  0 
  5  9  2  0  0  0  0 
  9  6  1  0  0  0  0 
  6 10  1  0  0  0  0 
 10 11  1  0  0  0  0 
 10 12  2  0  0  0  0 
M  CHG  1   4   1
M  CHG  1   7  -1
M  CHG  1  10   1
M  CHG  1  11  -1
M  END
> <Name>
1,3-DINITROBENZENE

> <Source>
DSSTox2DMolFile

> <Tox>
-3.046

> <CAS>
99-65-0

$$$$

  CDK

 11 11  0  0  0  0  0  0  0  0999 V2000
    2.3036   -2.6491    0.0000 C   0  0  0  0  0  0  0  0  0  0  0  0
    2.2978   -3.9852    0.0000 C   0  0  0  0  0  0  0  0  0  0  0  0
    3.4611   -1.9868    0.0000 C   0  0  0  0  0  0  0  0  0  0  0  0
    1.1518   -1.9868    0.0000 C   0  0  0  0  0  0  0  0  0  0  0  0
    3.4496   -4.6532    0.0000 C   0  0  0  0  0  0  0  0  0  0  0  0
    4.6071   -2.6548    0.0000 C   0  0  0  0  0  0  0  0  0  0  0  0
    1.1518   -0.6508    0.0000 C   0  0  0  0  0  0  0  0  0  0  0  0
    0.0000   -2.6491    0.0000 C   0  0  0  0  0  0  0  0  0  0  0  0
    4.6071   -3.9909    0.0000 C   0  0  0  0  0  0  0  0  0  0  0  0
    0.0173   -0.0000    0.0000 C   0  0  0  0  0  0  0  0  0  0  0  0
    5.7589   -4.6589    0.0000 O   0  0  0  0  0  0  0  0  0  0  0  0
  1  2  2  0  0  0  0 
  1  3  1  0  0  0  0 
  1  4  1  0  0  0  0 
  2  5  1  0  0  0  0 
  3  6  2  0  0  0  0 
  4  7  1  0  0  0  0 
  4  8  1  0  0  0  0 
  9  5  2  0  0  0  0 
  9  6  1  0  0  0  0 
  7 10  1  0  0  0  0 
  9 11  1  0  0  0  0 
M  END
> <Name>
P-(SEC-BUTYL)PHENOL

> <Source>
DSSTox2DMolFile

> <Tox>
-1.429

> <CAS>
99-71-8

$$$$

  CDK

 10 10  0  0  0  0  0  0  0  0999 V2000
    5.9822   -1.1546    0.0000 C   0  0  0  0  0  0  0  0  0  0  0  0
    4.6542   -1.1546    0.0000 C   0  0  0  0  0  0  0  0  0  0  0  0
    3.9901   -2.3031    0.0000 C   0  0  0  0  0  0  0  0  0  0  0  0
    3.9901   -0.0000    0.0000 C   0  0  0  0  0  0  0  0  0  0  0  0
    2.6561   -2.3031    0.0000 C   0  0  0  0  0  0  0  0  0  0  0  0
    2.6561   -0.0000    0.0000 C   0  0  0  0  0  0  0  0  0  0  0  0
    1.9921   -1.1546    0.0000 C   0  0  0  0  0  0  0  0  0  0  0  0
    0.6640   -1.1546    0.0000 C   0  0  0  0  0  0  0  0  0  0  0  0
    0.0000   -2.3031    0.0000 C   0  0  0  0  0  0  0  0  0  0  0  0
    0.0000   -0.0000    0.0000 C   0  0  0  0  0  0  0  0  0  0  0  0
  1  2  1  0  0  0  0 
  2  3  1  0  0  0  0 
  2  4  1  0  0  0  0 
  3  5  1  0  0  0  0 
  6  4  1  0  0  0  0 
  5  7  1  0  0  0  0 
  7  6  1  0  0  0  0 
  7  8  1  0  0  0  0 
  8  9  1  0  0  0  0 
  8 10  1  0  0  0  0 
M  END
> <Name>
P-MENTHANE

> <Source>
DSSTox2DMolFile

> <Tox>
0.430

> <CAS>
99-82-1

$$$$

  CDK

 10 10  0  0  0  0  0  0  0  0999 V2000
    3.6664    0.0821   -0.1049 C   0  0  0  0  0  0  0  0  0  0  0  0
    2.1909   -0.0273    0.0068 C   0  0  0  0  0  0  0  0  0  0  0  0
    1.5417   -1.2027   -0.0208 C   0  0  0  0  0  0  0  0  0  0  0  0
    1.4359    1.2084    0.1659 C   0  0  0  0  0  0  0  0  0  0  0  0
    0.0649   -1.2907    0.1230 C   0  0  0  0  0  0  0  0  0  0  0  0
    0.1034    1.2130    0.0503 C   0  0  0  0  0  0  0  0  0  0  0  0
   -0.6753   -0.0165   -0.2969 C   0  0  0  0  0  0  0  0  0  0  0  0
   -2.0910    0.0358    0.3150 C   0  0  0  0  0  0  0  0  0  0  0  0
   -2.8400    1.2754   -0.1543 C   0  0  0  0  0  0  0  0  0  0  0  0
   -2.9013   -1.2010   -0.0438 C   0  0  0  0  0  0  0  0  0  0  0  0
  1  2  1  0  0  0  0 
  2  3  2  0  0  0  0 
  2  4  1  0  0  0  0 
  3  5  1  0  0  0  0 
  6  4  2  0  0  0  0 
  5  7  1  0  0  0  0 
  7  6  1  0  0  0  0 
  7  8  1  0  0  0  0 
  8  9  1  0  0  0  0 
  8 10  1  0  0  0  0 
M  END
> <Name>
alpha-PHELLANDRENE

> <Source>
DougDB3DMolFile

> <Tox>
0.146

> <CAS>
99-83-2

$$$$

  CDK

 10 10  0  0  0  0  0  0  0  0999 V2000
    4.6590   -1.1393    0.0000 C   0  0  0  0  0  0  0  0  0  0  0  0
    4.0054   -2.2965    0.0000 C   0  0  0  0  0  0  0  0  0  0  0  0
    4.0054   -0.0000    0.0000 C   0  0  0  0  0  0  0  0  0  0  0  0
    5.9961   -1.1393    0.0000 C   0  0  0  0  0  0  0  0  0  0  0  0
    2.6683   -2.2965    0.0000 C   0  0  0  0  0  0  0  0  0  0  0  0
    2.6683   -0.0000    0.0000 C   0  0  0  0  0  0  0  0  0  0  0  0
    1.9907   -1.1393    0.0000 C   0  0  0  0  0  0  0  0  0  0  0  0
    0.6596   -1.1393    0.0000 C   0  0  0  0  0  0  0  0  0  0  0  0
    0.0000   -2.2965    0.0000 C   0  0  0  0  0  0  0  0  0  0  0  0
    0.0000   -0.0000    0.0000 C   0  0  0  0  0  0  0  0  0  0  0  0
  1  2  2  0  0  0  0 
  1  3  1  0  0  0  0 
  1  4  1  0  0  0  0 
  2  5  1  0  0  0  0 
  6  3  2  0  0  0  0 
  5  7  2  0  0  0  0 
  7  6  1  0  0  0  0 
  7  8  1  0  0  0  0 
  8  9  1  0  0  0  0 
  8 10  1  0  0  0  0 
M  END
> <Name>
P-CYMENE

> <Source>
DSSTox2DMolFile

> <Tox>
0.164

> <CAS>
99-87-6

$$$$

  CDK

 10 10  0  0  0  0  0  0  0  0999 V2000
    2.5066    0.0000    0.0000 C   0  0  0  0  0  0  0  0  0  0  0  0
    1.5347    0.0000    0.0000 C   0  0  0  0  0  0  0  0  0  0  0  0
    3.0182    0.8696    0.0000 C   0  0  0  0  0  0  0  0  0  0  0  0
    1.0231    0.8696    0.0000 C   0  0  0  0  0  0  0  0  0  0  0  0
    2.5066    1.7393    0.0000 C   0  0  0  0  0  0  0  0  0  0  0  0
    4.0413    0.8696    0.0000 C   0  0  0  0  0  0  0  0  0  0  0  0
    1.5347    1.7393    0.0000 C   0  0  0  0  0  0  0  0  0  0  0  0
    0.0000    0.8696    0.0000 N   0  0  0  0  0  0  0  0  0  0  0  0
    4.5528    0.0512    0.0000 C   0  0  0  0  0  0  0  0  0  0  0  0
    4.5528    1.7393    0.0000 C   0  0  0  0  0  0  0  0  0  0  0  0
  2  1  2  0  0  0  0 
  1  3  1  0  0  0  0 
  4  2  1  0  0  0  0 
  3  5  2  0  0  0  0 
  3  6  1  0  0  0  0 
  7  4  2  0  0  0  0 
  4  8  1  0  0  0  0 
  5  7  1  0  0  0  0 
  6  9  1  0  0  0  0 
  6 10  1  0  0  0  0 
M  END
> <Name>
P-ISOPROPYLANILINE

> <Source>
NIST2DMolFile

> <Tox>
-1.078

> <CAS>
99-88-7

$$$$

  CDK

 10 10  0  0  0  0  0  0  0  0999 V2000
    5.9822   -1.1546    0.0000 C   0  0  0  0  0  0  0  0  0  0  0  0
    4.6542   -1.1546    0.0000 C   0  0  0  0  0  0  0  0  0  0  0  0
    3.9901   -2.3031    0.0000 C   0  0  0  0  0  0  0  0  0  0  0  0
    3.9901   -0.0000    0.0000 C   0  0  0  0  0  0  0  0  0  0  0  0
    2.6561   -2.3031    0.0000 C   0  0  0  0  0  0  0  0  0  0  0  0
    2.6561   -0.0000    0.0000 C   0  0  0  0  0  0  0  0  0  0  0  0
    1.9921   -1.1546    0.0000 C   0  0  0  0  0  0  0  0  0  0  0  0
    0.6640   -1.1546    0.0000 C   0  0  0  0  0  0  0  0  0  0  0  0
    0.0000   -2.3031    0.0000 O   0  0  0  0  0  0  0  0  0  0  0  0
    0.0000   -0.0000    0.0000 O   0  0  0  0  0  0  0  0  0  0  0  0
  1  2  1  0  0  0  0 
  2  3  2  0  0  0  0 
  2  4  1  0  0  0  0 
  3  5  1  0  0  0  0 
  6  4  2  0  0  0  0 
  5  7  2  0  0  0  0 
  7  6  1  0  0  0  0 
  7  8  1  0  0  0  0 
  8  9  1  0  0  0  0 
  8 10  2  0  0  0  0 
M  END
> <Name>
P-TOLUIC ACID

> <Source>
DSSTox2DMolFile

> <Tox>
-4.294

> <CAS>
99-94-5

$$$$

  CDK

 10 10  0  0  0  0  0  0  0  0999 V2000
    0.0000   -0.0000    0.0000 C   0  0  0  0  0  0  0  0  0  0  0  0
    0.6640   -1.1546    0.0000 N   0  0  0  0  0  0  0  0  0  0  0  0
    0.0000   -2.3031    0.0000 C   0  0  0  0  0  0  0  0  0  0  0  0
    1.9921   -1.1546    0.0000 C   0  0  0  0  0  0  0  0  0  0  0  0
    2.6561   -0.0000    0.0000 C   0  0  0  0  0  0  0  0  0  0  0  0
    2.6561   -2.3031    0.0000 C   0  0  0  0  0  0  0  0  0  0  0  0
    3.9901   -0.0000    0.0000 C   0  0  0  0  0  0  0  0  0  0  0  0
    3.9901   -2.3031    0.0000 C   0  0  0  0  0  0  0  0  0  0  0  0
    4.6542   -1.1546    0.0000 C   0  0  0  0  0  0  0  0  0  0  0  0
    5.9822   -1.1546    0.0000 C   0  0  0  0  0  0  0  0  0  0  0  0
  1  2  1  0  0  0  0 
  2  3  1  0  0  0  0 
  2  4  1  0  0  0  0 
  4  5  2  0  0  0  0 
  4  6  1  0  0  0  0 
  5  7  1  0  0  0  0 
  8  6  2  0  0  0  0 
  7  9  2  0  0  0  0 
  9  8  1  0  0  0  0 
  9 10  1  0  0  0  0 
M  END
> <Name>
N,N,4-TRIMETHYLANILINE

> <Source>
DSSTox2DMolFile

> <Tox>
-0.750

> <CAS>
99-97-8

$$$$

  CDK

 10 10  0  0  0  0  0  0  0  0999 V2000
    3.3279   -2.4780    0.0000 C   0  0  0  0  0  0  0  0  0  0  0  0
    1.9991   -2.4780    0.0000 C   0  0  0  0  0  0  0  0  0  0  0  0
    3.9863   -1.3228    0.0000 C   0  0  0  0  0  0  0  0  0  0  0  0
    1.3288   -1.3228    0.0000 C   0  0  0  0  0  0  0  0  0  0  0  0
    3.3279   -0.1915    0.0000 C   0  0  0  0  0  0  0  0  0  0  0  0
    5.3150   -1.3228    0.0000 N   0  0  0  0  0  0  0  0  0  0  0  0
    1.9991   -0.1915    0.0000 C   0  0  0  0  0  0  0  0  0  0  0  0
    0.0000   -1.3228    0.0000 C   0  0  0  0  0  0  0  0  0  0  0  0
    5.9854   -2.4780    0.0000 O   0  0  0  0  0  0  0  0  0  0  0  0
    5.6323   -0.0000    0.0000 O   0  0  0  0  0  0  0  0  0  0  0  0
  1  2  2  0  0  0  0 
  1  3  1  0  0  0  0 
  2  4  1  0  0  0  0 
  3  5  2  0  0  0  0 
  3  6  1  0  0  0  0 
  4  7  2  0  0  0  0 
  4  8  1  0  0  0  0 
  7  5  1  0  0  0  0 
  6  9  2  0  0  0  0 
  6 10  1  0  0  0  0 
M  CHG  1   6   1
M  CHG  1  10  -1
M  END
> <Name>
P-NITROTOLUENE

> <Source>
DSSTox2DMolFile

> <Tox>
-1.804

> <CAS>
99-99-0

$$$$

  CDK

 10 10  0  0  0  0  0  0  0  0999 V2000
    0.0000   -2.3031    0.0000 O   0  0  0  0  0  0  0  0  0  0  0  0
    0.6640   -1.1546    0.0000 N   0  0  0  0  0  0  0  0  0  0  0  0
    1.9921   -1.1546    0.0000 C   0  0  0  0  0  0  0  0  0  0  0  0
    0.0000   -0.0000    0.0000 O   0  0  0  0  0  0  0  0  0  0  0  0
    2.6561   -0.0000    0.0000 C   0  0  0  0  0  0  0  0  0  0  0  0
    2.6561   -2.3031    0.0000 C   0  0  0  0  0  0  0  0  0  0  0  0
    3.9901   -0.0000    0.0000 C   0  0  0  0  0  0  0  0  0  0  0  0
    3.9901   -2.3031    0.0000 C   0  0  0  0  0  0  0  0  0  0  0  0
    4.6542   -1.1546    0.0000 C   0  0  0  0  0  0  0  0  0  0  0  0
    5.9822   -1.1546    0.0000 Cl  0  0  0  0  0  0  0  0  0  0  0  0
  1  2  2  0  0  0  0 
  2  3  1  0  0  0  0 
  2  4  1  0  0  0  0 
  3  5  2  0  0  0  0 
  3  6  1  0  0  0  0 
  5  7  1  0  0  0  0 
  8  6  2  0  0  0  0 
  7  9  2  0  0  0  0 
  9  8  1  0  0  0  0 
  9 10  1  0  0  0  0 
M  CHG  1   2   1
M  CHG  1   4  -1
M  END
> <Name>
P-CHLORONITROBENZENE

> <Source>
DSSTox2DMolFile

> <Tox>
-1.660

> <CAS>
100-00-5

$$$$

  CDK

 11 11  0  0  0  0  0  0  0  0999 V2000
   -2.5667   -0.1929   -0.0002 C   0  0  0  0  0  0  0  0  0  0  0  0
   -3.4231    1.0472    0.0024 C   0  0  0  0  0  0  0  0  0  0  0  0
   -3.0810   -1.2989   -0.0024 O   0  0  0  0  0  0  0  0  0  0  0  0
   -1.0852   -0.0255   -0.0001 C   0  0  0  0  0  0  0  0  0  0  0  0
   -0.4904    1.2418   -0.0017 C   0  0  0  0  0  0  0  0  0  0  0  0
   -0.2653   -1.1568    0.0014 C   0  0  0  0  0  0  0  0  0  0  0  0
    0.8871    1.3822   -0.0014 C   0  0  0  0  0  0  0  0  0  0  0  0
    1.1195   -1.0387    0.0016 C   0  0  0  0  0  0  0  0  0  0  0  0
    1.6978    0.2343    0.0004 C   0  0  0  0  0  0  0  0  0  0  0  0
    3.0489    0.5006    0.0012 O   0  0  0  0  0  0  0  0  0  0  0  0
    3.9294   -0.5969   -0.0011 C   0  0  0  0  0  0  0  0  0  0  0  0
  1  2  1  0  0  0  0 
  1  3  2  0  0  0  0 
  1  4  1  0  0  0  0 
  4  5  1  0  0  0  0 
  4  6  2  0  0  0  0 
  5  7  2  0  0  0  0 
  8  6  1  0  0  0  0 
  7  9  1  0  0  0  0 
  9  8  2  0  0  0  0 
  9 10  1  0  0  0  0 
 10 11  1  0  0  0  0 
M  END
> <Name>
P-METHOXYACETOPHENONE

> <Source>
DougDB3DMolFile

> <Tox>
-2.191

> <CAS>
100-06-1

$$$$

  CDK

 11 11  0  0  0  0  0  0  0  0999 V2000
    0.0000   -0.0000    0.0000 C   0  0  0  0  0  0  0  0  0  0  0  0
    0.6654   -1.1511    0.0000 N   0  0  0  0  0  0  0  0  0  0  0  0
    0.0000   -2.3022    0.0000 C   0  0  0  0  0  0  0  0  0  0  0  0
    1.9961   -1.1511    0.0000 C   0  0  0  0  0  0  0  0  0  0  0  0
    2.6615   -0.0000    0.0000 C   0  0  0  0  0  0  0  0  0  0  0  0
    2.6615   -2.3022    0.0000 C   0  0  0  0  0  0  0  0  0  0  0  0
    3.9923   -0.0000    0.0000 C   0  0  0  0  0  0  0  0  0  0  0  0
    3.9923   -2.3022    0.0000 C   0  0  0  0  0  0  0  0  0  0  0  0
    4.6576   -1.1511    0.0000 C   0  0  0  0  0  0  0  0  0  0  0  0
    5.9884   -1.1511    0.0000 C   0  0  0  0  0  0  0  0  0  0  0  0
    6.6538   -0.0000    0.0000 O   0  0  0  0  0  0  0  0  0  0  0  0
  1  2  1  0  0  0  0 
  2  3  1  0  0  0  0 
  2  4  1  0  0  0  0 
  4  5  2  0  0  0  0 
  4  6  1  0  0  0  0 
  5  7  1  0  0  0  0 
  8  6  2  0  0  0  0 
  7  9  2  0  0  0  0 
  9  8  1  0  0  0  0 
  9 10  1  0  0  0  0 
 10 11  2  0  0  0  0 
M  END
> <Name>
P-FORMYL-N,N-DIMETHYLANILINE

> <Source>
DSSTox2DMolFile

> <Tox>
-2.434

> <CAS>
100-10-7

$$$$

  CDK

  8  7  0  0  0  0  0  0  0  0999 V2000
    0.0000   -2.3042    0.0000 C   0  0  0  0  0  0  0  0  0  0  0  0
    1.3303   -2.3042    0.0000 C   0  0  0  0  0  0  0  0  0  0  0  0
    1.9955   -1.1547    0.0000 N   0  0  0  0  0  0  0  0  0  0  0  0
    3.3259   -1.1547    0.0000 C   0  0  0  0  0  0  0  0  0  0  0  0
    1.3303   -0.0000    0.0000 C   0  0  0  0  0  0  0  0  0  0  0  0
    3.9910   -2.3042    0.0000 C   0  0  0  0  0  0  0  0  0  0  0  0
    0.0000   -0.0000    0.0000 C   0  0  0  0  0  0  0  0  0  0  0  0
    5.3214   -2.3042    0.0000 O   0  0  0  0  0  0  0  0  0  0  0  0
  1  2  1  0  0  0  0 
  2  3  1  0  0  0  0 
  3  4  1  0  0  0  0 
  3  5  1  0  0  0  0 
  4  6  1  0  0  0  0 
  5  7  1  0  0  0  0 
  6  8  1  0  0  0  0 
M  END
> <Name>
2-(DIETHYLAMINO)-ETHANOL

> <Source>
DSSTox2DMolFile

> <Tox>
0.146

> <CAS>
100-37-8

$$$$

  CDK

  8  8  0  0  0  0  0  0  0  0999 V2000
    0.0000   -0.0000    0.0000 Br  0  0  0  0  0  0  0  0  0  0  0  0
    0.6654   -1.1540    0.0000 C   0  0  0  0  0  0  0  0  0  0  0  0
    1.9962   -1.1540    0.0000 C   0  0  0  0  0  0  0  0  0  0  0  0
    2.6569   -0.0000    0.0000 C   0  0  0  0  0  0  0  0  0  0  0  0
    2.6569   -2.3033    0.0000 C   0  0  0  0  0  0  0  0  0  0  0  0
    3.9877   -0.0000    0.0000 C   0  0  0  0  0  0  0  0  0  0  0  0
    3.9877   -2.3033    0.0000 C   0  0  0  0  0  0  0  0  0  0  0  0
    4.6531   -1.1540    0.0000 C   0  0  0  0  0  0  0  0  0  0  0  0
  1  2  1  0  0  0  0 
  2  3  1  0  0  0  0 
  3  4  2  0  0  0  0 
  3  5  1  0  0  0  0 
  4  6  1  0  0  0  0 
  7  5  2  0  0  0  0 
  6  8  2  0  0  0  0 
  8  7  1  0  0  0  0 
M  END
> <Name>
ALPHA-BROMOTOLUENE

> <Source>
DSSTox2DMolFile

> <Tox>
-0.347

> <CAS>
100-39-0

$$$$

  CDK

  8  8  0  0  0  0  0  0  0  0999 V2000
    0.0000   -0.0000    0.0000 C   0  0  0  0  0  0  0  0  0  0  0  0
    0.6654   -1.1540    0.0000 C   0  0  0  0  0  0  0  0  0  0  0  0
    1.9962   -1.1540    0.0000 C   0  0  0  0  0  0  0  0  0  0  0  0
    2.6569   -0.0000    0.0000 C   0  0  0  0  0  0  0  0  0  0  0  0
    2.6569   -2.3033    0.0000 C   0  0  0  0  0  0  0  0  0  0  0  0
    3.9877   -0.0000    0.0000 C   0  0  0  0  0  0  0  0  0  0  0  0
    3.9877   -2.3033    0.0000 C   0  0  0  0  0  0  0  0  0  0  0  0
    4.6531   -1.1540    0.0000 C   0  0  0  0  0  0  0  0  0  0  0  0
  1  2  2  0  0  0  0 
  2  3  1  0  0  0  0 
  3  4  1  0  0  0  0 
  3  5  1  0  0  0  0 
  4  6  1  0  0  0  0 
  7  5  1  0  0  0  0 
  6  8  1  0  0  0  0 
  8  7  2  0  0  0  0 
M  END
> <Name>
4-VINYLCYCLOHEXENE

> <Source>
DSSTox2DMolFile

> <Tox>
1.196

> <CAS>
100-40-3

$$$$

  CDK

  8  8  0  0  0  0  0  0  0  0999 V2000
    0.0000   -0.0000    0.0000 C   0  0  0  0  0  0  0  0  0  0  0  0
    0.6654   -1.1540    0.0000 C   0  0  0  0  0  0  0  0  0  0  0  0
    1.9962   -1.1540    0.0000 C   0  0  0  0  0  0  0  0  0  0  0  0
    2.6569   -0.0000    0.0000 C   0  0  0  0  0  0  0  0  0  0  0  0
    2.6569   -2.3033    0.0000 C   0  0  0  0  0  0  0  0  0  0  0  0
    3.9877   -0.0000    0.0000 C   0  0  0  0  0  0  0  0  0  0  0  0
    3.9877   -2.3033    0.0000 C   0  0  0  0  0  0  0  0  0  0  0  0
    4.6531   -1.1540    0.0000 C   0  0  0  0  0  0  0  0  0  0  0  0
  1  2  2  0  0  0  0 
  2  3  1  0  0  0  0 
  3  4  2  0  0  0  0 
  3  5  1  0  0  0  0 
  4  6  1  0  0  0  0 
  7  5  2  0  0  0  0 
  6  8  2  0  0  0  0 
  8  7  1  0  0  0  0 
M  END
> <Name>
STYRENE

> <Source>
DSSTox2DMolFile

> <Tox>
0.806

> <CAS>
100-42-5

$$$$

  CDK

  8  8  0  0  0  0  0  0  0  0999 V2000
    1.2836    1.3073    0.0000 C   0  0  0  0  0  0  0  0  0  0  0  0
   -0.0871    1.0599    0.0000 C   0  0  0  0  0  0  0  0  0  0  0  0
    2.1847    0.2980    0.0000 N   0  0  0  0  0  0  0  0  0  0  0  0
   -0.5468   -0.2611    0.0000 C   0  0  0  0  0  0  0  0  0  0  0  0
    1.7501   -0.9835    0.0000 C   0  0  0  0  0  0  0  0  0  0  0  0
    0.3920   -1.2978    0.0000 C   0  0  0  0  0  0  0  0  0  0  0  0
   -1.9759   -0.5639    0.0000 C   0  0  0  0  0  0  0  0  0  0  0  0
   -2.9114    0.3838    0.0000 C   0  0  0  0  0  0  0  0  0  0  0  0
  1  2  1  0  0  0  0 
  1  3  2  0  0  0  0 
  2  4  2  0  0  0  0 
  5  3  1  0  0  0  0 
  4  6  1  0  0  0  0 
  4  7  1  0  0  0  0 
  6  5  2  0  0  0  0 
  7  8  2  0  0  0  0 
M  END
> <Name>
4-VINYLPYRIDINE

> <Source>
DougDB3DMolFile

> <Tox>
0.230

> <CAS>
100-43-6

$$$$

  CDK

  8  8  0  0  0  0  0  0  0  0999 V2000
    0.0000   -0.0000    0.0000 Cl  0  0  0  0  0  0  0  0  0  0  0  0
    0.6654   -1.1540    0.0000 C   0  0  0  0  0  0  0  0  0  0  0  0
    1.9962   -1.1540    0.0000 C   0  0  0  0  0  0  0  0  0  0  0  0
    2.6569   -0.0000    0.0000 C   0  0  0  0  0  0  0  0  0  0  0  0
    2.6569   -2.3033    0.0000 C   0  0  0  0  0  0  0  0  0  0  0  0
    3.9877   -0.0000    0.0000 C   0  0  0  0  0  0  0  0  0  0  0  0
    3.9877   -2.3033    0.0000 C   0  0  0  0  0  0  0  0  0  0  0  0
    4.6531   -1.1540    0.0000 C   0  0  0  0  0  0  0  0  0  0  0  0
  1  2  1  0  0  0  0 
  2  3  1  0  0  0  0 
  3  4  2  0  0  0  0 
  3  5  1  0  0  0  0 
  4  6  1  0  0  0  0 
  7  5  2  0  0  0  0 
  6  8  2  0  0  0  0 
  8  7  1  0  0  0  0 
M  END
> <Name>
ALPHA-CHLOROTOLUENE

> <Source>
DSSTox2DMolFile

> <Tox>
0.090

> <CAS>
100-44-7

$$$$

  CDK

  8  8  0  0  0  0  0  0  0  0999 V2000
    0.0000   -1.1545    0.0000 N   0  0  0  0  0  0  0  0  0  0  0  0
    1.3300   -1.1545    0.0000 C   0  0  0  0  0  0  0  0  0  0  0  0
    2.6600   -1.1545    0.0000 C   0  0  0  0  0  0  0  0  0  0  0  0
    3.3250   -0.0000    0.0000 C   0  0  0  0  0  0  0  0  0  0  0  0
    3.3250   -2.3036    0.0000 C   0  0  0  0  0  0  0  0  0  0  0  0
    4.6551   -0.0000    0.0000 C   0  0  0  0  0  0  0  0  0  0  0  0
    4.6551   -2.3036    0.0000 C   0  0  0  0  0  0  0  0  0  0  0  0
    5.3201   -1.1545    0.0000 C   0  0  0  0  0  0  0  0  0  0  0  0
  1  2  3  0  0  0  0 
  2  3  1  0  0  0  0 
  3  4  2  0  0  0  0 
  3  5  1  0  0  0  0 
  4  6  1  0  0  0  0 
  7  5  2  0  0  0  0 
  6  8  2  0  0  0  0 
  8  7  1  0  0  0  0 
M  END
> <Name>
BENZONITRILE

> <Source>
DSSTox2DMolFile

> <Tox>
-0.115

> <CAS>
100-47-0

$$$$

  CDK

  8  8  0  0  0  0  0  0  0  0999 V2000
    0.0000   -0.0000    0.0000 O   0  0  0  0  0  0  0  0  0  0  0  0
    0.6654   -1.1540    0.0000 C   0  0  0  0  0  0  0  0  0  0  0  0
    1.9962   -1.1540    0.0000 C   0  0  0  0  0  0  0  0  0  0  0  0
    2.6569   -0.0000    0.0000 C   0  0  0  0  0  0  0  0  0  0  0  0
    2.6569   -2.3033    0.0000 C   0  0  0  0  0  0  0  0  0  0  0  0
    3.9877   -0.0000    0.0000 C   0  0  0  0  0  0  0  0  0  0  0  0
    3.9877   -2.3033    0.0000 C   0  0  0  0  0  0  0  0  0  0  0  0
    4.6531   -1.1540    0.0000 C   0  0  0  0  0  0  0  0  0  0  0  0
  1  2  1  0  0  0  0 
  2  3  1  0  0  0  0 
  3  4  2  0  0  0  0 
  3  5  1  0  0  0  0 
  4  6  1  0  0  0  0 
  7  5  2  0  0  0  0 
  6  8  2  0  0  0  0 
  8  7  1  0  0  0  0 
M  END
> <Name>
BENZYL ALCOHOL

> <Source>
DSSTox2DMolFile

> <Tox>
-1.027

> <CAS>
100-51-6

$$$$

  CDK

  8  8  0  0  0  0  0  0  0  0999 V2000
    4.6531   -1.1540    0.0000 C   0  0  0  0  0  0  0  0  0  0  0  0
    3.9877   -2.3033    0.0000 C   0  0  0  0  0  0  0  0  0  0  0  0
    3.9877   -0.0000    0.0000 C   0  0  0  0  0  0  0  0  0  0  0  0
    2.6569   -2.3033    0.0000 C   0  0  0  0  0  0  0  0  0  0  0  0
    2.6569   -0.0000    0.0000 C   0  0  0  0  0  0  0  0  0  0  0  0
    1.9962   -1.1540    0.0000 C   0  0  0  0  0  0  0  0  0  0  0  0
    0.6654   -1.1540    0.0000 N   0  0  0  0  0  0  0  0  0  0  0  0
    0.0000   -0.0000    0.0000 C   0  0  0  0  0  0  0  0  0  0  0  0
  1  2  2  0  0  0  0 
  1  3  1  0  0  0  0 
  2  4  1  0  0  0  0 
  3  5  2  0  0  0  0 
  4  6  2  0  0  0  0 
  6  5  1  0  0  0  0 
  6  7  1  0  0  0  0 
  7  8  1  0  0  0  0 
M  END
> <Name>
N-METHYLANILINE

> <Source>
DSSTox2DMolFile

> <Tox>
-0.344

> <CAS>
100-61-8

$$$$

  CDK

  8  8  0  0  0  0  0  0  0  0999 V2000
    0.0000   -0.0000    0.0000 N   0  0  0  0  0  0  0  0  0  0  0  0
    0.6654   -1.1540    0.0000 N   0  0  0  0  0  0  0  0  0  0  0  0
    1.9962   -1.1540    0.0000 C   0  0  0  0  0  0  0  0  0  0  0  0
    2.6569   -0.0000    0.0000 C   0  0  0  0  0  0  0  0  0  0  0  0
    2.6569   -2.3033    0.0000 C   0  0  0  0  0  0  0  0  0  0  0  0
    3.9877   -0.0000    0.0000 C   0  0  0  0  0  0  0  0  0  0  0  0
    3.9877   -2.3033    0.0000 C   0  0  0  0  0  0  0  0  0  0  0  0
    4.6531   -1.1540    0.0000 C   0  0  0  0  0  0  0  0  0  0  0  0
  1  2  1  0  0  0  0 
  2  3  1  0  0  0  0 
  3  4  2  0  0  0  0 
  3  5  1  0  0  0  0 
  4  6  1  0  0  0  0 
  7  5  2  0  0  0  0 
  6  8  2  0  0  0  0 
  8  7  1  0  0  0  0 
M  END
> <Name>
PHENYL HYDRAZINE

> <Source>
DSSTox2DMolFile

> <Tox>
-1.585

> <CAS>
100-63-0

$$$$

  CDK

  8  8  0  0  0  0  0  0  0  0999 V2000
   -0.4736   -0.2196    0.0007 C   0  0  0  0  0  0  0  0  0  0  0  0
    0.4326   -1.2928   -0.0003 C   0  0  0  0  0  0  0  0  0  0  0  0
   -0.0143    1.1009    0.0009 C   0  0  0  0  0  0  0  0  0  0  0  0
   -1.7996   -0.6065    0.0021 O   0  0  0  0  0  0  0  0  0  0  0  0
    1.7941   -1.0283   -0.0007 C   0  0  0  0  0  0  0  0  0  0  0  0
    1.3564    1.3407    0.0003 C   0  0  0  0  0  0  0  0  0  0  0  0
   -2.7712    0.4094   -0.0021 C   0  0  0  0  0  0  0  0  0  0  0  0
    2.2589    0.2850   -0.0005 C   0  0  0  0  0  0  0  0  0  0  0  0
  1  2  1  0  0  0  0 
  1  3  2  0  0  0  0 
  1  4  1  0  0  0  0 
  2  5  2  0  0  0  0 
  6  3  1  0  0  0  0 
  4  7  1  0  0  0  0 
  5  8  1  0  0  0  0 
  8  6  2  0  0  0  0 
M  END
> <Name>
ANISOLE

> <Source>
DougDB3DMolFile

> <Tox>
0.549

> <CAS>
100-66-3

$$$$

  CDK

  8  9  0  0  0  0  0  0  0  0999 V2000
    0.5924    1.7460    0.0000 C   0  0  0  0  0  0  0  0  0  0  0  0
    1.1224    0.5924    0.0000 C   0  0  0  0  0  0  0  0  0  0  0  0
    1.0601    2.0266    0.0000 C   0  0  0  0  0  0  0  0  0  0  0  0
    0.0000    0.0000    0.0000 C   0  0  0  0  0  0  0  0  0  0  0  0
    2.2761    0.1247    0.0000 C   0  0  0  0  0  0  0  0  0  0  0  0
    1.3095    1.1848    0.0000 N   0  0  0  0  0  0  0  0  0  0  0  0
    0.1247    0.6548    0.0000 C   0  0  0  0  0  0  0  0  0  0  0  0
    2.4320    0.7171    0.0000 C   0  0  0  0  0  0  0  0  0  0  0  0
  1  2  1  0  0  0  0 
  1  3  1  0  0  0  0 
  2  4  1  0  0  0  0 
  5  2  1  0  0  0  0 
  3  6  1  0  0  0  0 
  4  7  1  0  0  0  0 
  8  5  1  0  0  0  0 
  6  7  1  0  0  0  0 
  6  8  1  0  0  0  0 
M  END
> <Name>
QUINUCLIDINE

> <Source>
NIST2DMolFile

> <Tox>
0.281

> <CAS>
100-76-5

$$$$

  CDK

  9  9  0  0  0  0  0  0  0  0999 V2000
    0.0000   -0.3731    0.0000 C   0  0  0  0  0  0  0  0  0  0  0  0
    1.0753   -1.1521    0.0000 C   0  0  0  0  0  0  0  0  0  0  0  0
    0.1865   -2.1396    0.0000 C   0  0  0  0  0  0  0  0  0  0  0  0
    1.7391   -0.0000    0.0000 O   0  0  0  0  0  0  0  0  0  0  0  0
    1.9641   -2.1396    0.0000 O   0  0  0  0  0  0  0  0  0  0  0  0
    3.0449   -0.2798    0.0000 C   0  0  0  0  0  0  0  0  0  0  0  0
    3.1820   -1.6020    0.0000 C   0  0  0  0  0  0  0  0  0  0  0  0
    4.3341   -2.2658    0.0000 C   0  0  0  0  0  0  0  0  0  0  0  0
    5.4862   -1.6020    0.0000 O   0  0  0  0  0  0  0  0  0  0  0  0
  1  2  1  0  0  0  0 
  2  3  1  0  0  0  0 
  2  4  1  0  0  0  0 
  2  5  1  0  0  0  0 
  4  6  1  0  0  0  0 
  7  5  1  0  0  0  0 
  6  7  1  0  0  0  0 
  7  8  1  0  0  0  0 
  8  9  1  0  0  0  0 
M  END
> <Name>
DIOXOLANE

> <Source>
DSSTox2DMolFile

> <Tox>
2.029

> <CAS>
100-79-8

$$$$

  CDK

  9  9  0  0  0  0  0  0  0  0999 V2000
    5.7001    4.3450    0.3935 C   0  0  0  0  0  0  0  0  0  0  0  0
    4.9813    3.2455    0.6113 C   0  0  0  0  0  0  0  0  0  0  0  0
    3.6197    3.2796    1.1421 C   0  0  0  0  0  0  0  0  0  0  0  0
    2.9258    2.0842    1.3467 C   0  0  0  0  0  0  0  0  0  0  0  0
    3.0009    4.4951    1.4493 C   0  0  0  0  0  0  0  0  0  0  0  0
    1.6261    2.1028    1.8521 C   0  0  0  0  0  0  0  0  0  0  0  0
    1.7078    4.5137    1.9547 C   0  0  0  0  0  0  0  0  0  0  0  0
    0.8862    0.8298    2.0526 C   0  0  0  0  0  0  0  0  0  0  0  0
    1.0198    3.3229    2.1571 C   0  0  0  0  0  0  0  0  0  0  0  0
  1  2  2  0  0  0  0 
  2  3  1  0  0  0  0 
  3  4  2  0  0  0  0 
  5  3  1  0  0  0  0 
  4  6  1  0  0  0  0 
  7  5  2  0  0  0  0 
  6  8  1  0  0  0  0 
  6  9  2  0  0  0  0 
  9  7  1  0  0  0  0 
M  END
> <Name>
M-METHYLSTYRENE

> <Source>
NIST3DMolFile

> <Tox>
0.230

> <CAS>
100-80-1

$$$$

  CDK

 10 12  0  0  0  0  0  0  0  0999 V2000
    0.5559   -2.0884    0.0000 N   0  0  0  0  0  0  0  0  0  0  0  0
    1.8120   -2.5720    0.0000 C   0  0  0  0  0  0  0  0  0  0  0  0
    0.5559   -0.6469    0.0000 C   0  0  0  0  0  0  0  0  0  0  0  0
    0.0000   -3.1404    0.0000 C   0  0  0  0  0  0  0  0  0  0  0  0
    2.9112   -1.9879    0.0000 N   0  0  0  0  0  0  0  0  0  0  0  0
    1.7586   -0.0000    0.0000 N   0  0  0  0  0  0  0  0  0  0  0  0
    1.0269   -2.6850    0.0000 N   0  0  0  0  0  0  0  0  0  0  0  0
    2.3427   -3.1404    0.0000 C   0  0  0  0  0  0  0  0  0  0  0  0
    2.9112   -0.6720    0.0000 C   0  0  0  0  0  0  0  0  0  0  0  0
    1.0269   -1.0144    0.0000 C   0  0  0  0  0  0  0  0  0  0  0  0
  1  2  1  0  0  0  0 
  1  3  1  0  0  0  0 
  1  4  1  0  0  0  0 
  5  2  1  0  0  0  0 
  6  3  1  0  0  0  0 
  7  4  1  0  0  0  0 
  5  8  1  0  0  0  0 
  5  9  1  0  0  0  0 
  6  9  1  0  0  0  0 
  6 10  1  0  0  0  0 
  7  8  1  0  0  0  0 
  7 10  1  0  0  0  0 
M  END
> <Name>
HEXAMETHYLENETETRAMINE

> <Source>
DSSTox2DMolFile

> <Tox>
-2.398

> <CAS>
100-97-0

$$$$

  CDK

 16 16  0  0  0  0  0  0  0  0999 V2000
    4.3823    1.5111    0.0000 C   0  0  0  0  0  0  0  0  0  0  0  0
    3.5260    2.0148    0.0000 N   0  0  0  0  0  0  0  0  0  0  0  0
    5.2386    2.0148    0.0000 O   0  0  0  0  0  0  0  0  0  0  0  0
    4.3823    0.5541    0.0000 O   0  0  0  0  0  0  0  0  0  0  0  0
    2.6193    1.4608    0.0000 C   0  0  0  0  0  0  0  0  0  0  0  0
    6.0949    1.5615    0.0000 C   0  0  0  0  0  0  0  0  0  0  0  0
    1.7630    2.0148    0.0000 C   0  0  0  0  0  0  0  0  0  0  0  0
    2.6193    0.5037    0.0000 C   0  0  0  0  0  0  0  0  0  0  0  0
    6.9512    2.1156    0.0000 C   0  0  0  0  0  0  0  0  0  0  0  0
    0.9067    1.4608    0.0000 C   0  0  0  0  0  0  0  0  0  0  0  0
    1.7630    0.0000    0.0000 C   0  0  0  0  0  0  0  0  0  0  0  0
    7.8075    2.6193    0.0000 C   0  0  0  0  0  0  0  0  0  0  0  0
    0.0000    1.9645    0.0000 Cl  0  0  0  0  0  0  0  0  0  0  0  0
    0.9067    0.4533    0.0000 C   0  0  0  0  0  0  0  0  0  0  0  0
    8.7142    3.0726    0.0000 C   0  0  0  0  0  0  0  0  0  0  0  0
    9.5705    2.5689    0.0000 Cl  0  0  0  0  0  0  0  0  0  0  0  0
  1  2  1  0  0  0  0 
  1  3  1  0  0  0  0 
  1  4  2  0  0  0  0 
  2  5  1  0  0  0  0 
  3  6  1  0  0  0  0 
  7  5  2  0  0  0  0 
  5  8  1  0  0  0  0 
  6  9  1  0  0  0  0 
 10  7  1  0  0  0  0 
  8 11  2  0  0  0  0 
  9 12  3  0  0  0  0 
 10 13  1  0  0  0  0 
 14 10  2  0  0  0  0 
 11 14  1  0  0  0  0 
 12 15  1  0  0  0  0 
 15 16  1  0  0  0  0 
M  END
> <Name>
BARBAN

> <Source>
NIST2DMolFile

> <Tox>
-6.420

> <CAS>
101-27-9

$$$$

  CDK

 11 11  0  0  0  0  0  0  0  0999 V2000
    2.3038   -2.6609    0.0000 C   0  0  0  0  0  0  0  0  0  0  0  0
    1.1519   -1.9986    0.0000 C   0  0  0  0  0  0  0  0  0  0  0  0
    3.4557   -1.9986    0.0000 C   0  0  0  0  0  0  0  0  0  0  0  0
    0.0000   -2.6609    0.0000 C   0  0  0  0  0  0  0  0  0  0  0  0
    1.1519   -0.6681    0.0000 C   0  0  0  0  0  0  0  0  0  0  0  0
    3.4557   -0.6681    0.0000 C   0  0  0  0  0  0  0  0  0  0  0  0
    4.6076   -2.6609    0.0000 C   0  0  0  0  0  0  0  0  0  0  0  0
    2.3038   -0.0000    0.0000 O   0  0  0  0  0  0  0  0  0  0  0  0
    4.6076   -0.0000    0.0000 C   0  0  0  0  0  0  0  0  0  0  0  0
    5.7595   -1.9986    0.0000 C   0  0  0  0  0  0  0  0  0  0  0  0
    5.7595   -0.6681    0.0000 C   0  0  0  0  0  0  0  0  0  0  0  0
  1  2  2  0  0  0  0 
  1  3  1  0  0  0  0 
  2  4  1  0  0  0  0 
  2  5  1  0  0  0  0 
  3  6  2  0  0  0  0 
  3  7  1  0  0  0  0 
  5  8  2  0  0  0  0 
  6  9  1  0  0  0  0 
 10  7  2  0  0  0  0 
  9 11  2  0  0  0  0 
 11 10  1  0  0  0  0 
M  END
> <Name>
2-Propenal, 2-methyl-3-phenyl-

> <Source>
DSSTox2DMolFile

> <Tox>
-1.824

> <CAS>
101-39-3

$$$$

  CDK

 12 12  0  0  0  0  0  0  0  0999 V2000
   -2.7464    0.4231    0.1018 N   0  0  0  0  0  0  0  0  0  0  0  0
   -1.4289   -0.2482    0.0987 C   0  0  0  0  0  0  0  0  0  0  0  0
   -3.7349   -0.1917    1.0167 C   0  0  0  0  0  0  0  0  0  0  0  0
   -3.2829    0.6408   -1.2628 C   0  0  0  0  0  0  0  0  0  0  0  0
   -1.2969   -1.4397    0.3351 O   0  0  0  0  0  0  0  0  0  0  0  0
   -0.3539    0.6223   -0.1893 N   0  0  0  0  0  0  0  0  0  0  0  0
    1.0413    0.2948   -0.0817 C   0  0  0  0  0  0  0  0  0  0  0  0
    1.9219    1.3054    0.3342 C   0  0  0  0  0  0  0  0  0  0  0  0
    1.5422   -0.9626   -0.4365 C   0  0  0  0  0  0  0  0  0  0  0  0
    3.2849    1.0511    0.3975 C   0  0  0  0  0  0  0  0  0  0  0  0
    2.9101   -1.2015   -0.3612 C   0  0  0  0  0  0  0  0  0  0  0  0
    3.7824   -0.2018    0.0533 C   0  0  0  0  0  0  0  0  0  0  0  0
  1  2  1  0  0  0  0 
  1  3  1  0  0  0  0 
  1  4  1  0  0  0  0 
  2  5  2  0  0  0  0 
  2  6  1  0  0  0  0 
  6  7  1  0  0  0  0 
  7  8  1  0  0  0  0 
  7  9  2  0  0  0  0 
  8 10  2  0  0  0  0 
 11  9  1  0  0  0  0 
 10 12  1  0  0  0  0 
 12 11  2  0  0  0  0 
M  END
> <Name>
FENURON

> <Source>
DougDB3DMolFile

> <Tox>
-4.426

> <CAS>
101-42-8

$$$$

  CDK

 14 15  0  0  0  0  0  0  0  0999 V2000
    4.6109   -2.6601    0.0000 N   0  0  0  0  0  0  0  0  0  0  0  0
    5.7555   -1.9991    0.0000 C   0  0  0  0  0  0  0  0  0  0  0  0
    3.4581   -1.9991    0.0000 C   0  0  0  0  0  0  0  0  0  0  0  0
    5.7555   -0.6691    0.0000 C   0  0  0  0  0  0  0  0  0  0  0  0
    6.9082   -2.6601    0.0000 C   0  0  0  0  0  0  0  0  0  0  0  0
    2.3054   -2.6601    0.0000 C   0  0  0  0  0  0  0  0  0  0  0  0
    3.4581   -0.6691    0.0000 C   0  0  0  0  0  0  0  0  0  0  0  0
    6.9082   -0.0000    0.0000 C   0  0  0  0  0  0  0  0  0  0  0  0
    8.0609   -1.9991    0.0000 C   0  0  0  0  0  0  0  0  0  0  0  0
    1.1527   -1.9991    0.0000 C   0  0  0  0  0  0  0  0  0  0  0  0
    2.3054   -0.0000    0.0000 C   0  0  0  0  0  0  0  0  0  0  0  0
    8.0609   -0.6691    0.0000 C   0  0  0  0  0  0  0  0  0  0  0  0
    1.1527   -0.6691    0.0000 C   0  0  0  0  0  0  0  0  0  0  0  0
    0.0000   -0.0000    0.0000 N   0  0  0  0  0  0  0  0  0  0  0  0
  1  2  1  0  0  0  0 
  1  3  1  0  0  0  0 
  2  4  2  0  0  0  0 
  2  5  1  0  0  0  0 
  3  6  2  0  0  0  0 
  3  7  1  0  0  0  0 
  4  8  1  0  0  0  0 
  9  5  2  0  0  0  0 
  6 10  1  0  0  0  0 
 11  7  2  0  0  0  0 
  8 12  2  0  0  0  0 
 12  9  1  0  0  0  0 
 10 13  2  0  0  0  0 
 13 11  1  0  0  0  0 
 13 14  1  0  0  0  0 
M  END
> <Name>
4-AMINODIPHENYLAMINE

> <Source>
DSSTox2DMolFile

> <Tox>
-4.917

> <CAS>
101-54-2

$$$$

  CDK

 19 20  0  0  0  0  0  0  0  0999 V2000
    0.0000   -1.3381    0.0000 O   0  0  0  0  0  0  0  0  0  0  0  0
    1.1449   -0.6621    0.0000 C   0  0  0  0  0  0  0  0  0  0  0  0
    2.2899   -0.0000    0.0000 N   0  0  0  0  0  0  0  0  0  0  0  0
    3.4486   -0.6621    0.0000 C   0  0  0  0  0  0  0  0  0  0  0  0
    4.5936   -0.0000    0.0000 C   0  0  0  0  0  0  0  0  0  0  0  0
    3.4486   -2.0002    0.0000 C   0  0  0  0  0  0  0  0  0  0  0  0
    5.7523   -0.6621    0.0000 C   0  0  0  0  0  0  0  0  0  0  0  0
    4.5936   -2.6624    0.0000 C   0  0  0  0  0  0  0  0  0  0  0  0
    5.7523   -2.0002    0.0000 C   0  0  0  0  0  0  0  0  0  0  0  0
    6.9111   -2.6624    0.0000 C   0  0  0  0  0  0  0  0  0  0  0  0
    8.0422   -2.0002    0.0000 C   0  0  0  0  0  0  0  0  0  0  0  0
    9.2010   -2.6624    0.0000 C   0  0  0  0  0  0  0  0  0  0  0  0
    8.0422   -0.6621    0.0000 C   0  0  0  0  0  0  0  0  0  0  0  0
   10.3459   -2.0002    0.0000 C   0  0  0  0  0  0  0  0  0  0  0  0
    9.2010   -0.0000    0.0000 C   0  0  0  0  0  0  0  0  0  0  0  0
   10.3459   -0.6621    0.0000 C   0  0  0  0  0  0  0  0  0  0  0  0
   11.5047   -0.0000    0.0000 N   0  0  0  0  0  0  0  0  0  0  0  0
   12.6496   -0.6621    0.0000 C   0  0  0  0  0  0  0  0  0  0  0  0
   13.7946   -1.3381    0.0000 O   0  0  0  0  0  0  0  0  0  0  0  0
  1  2  2  0  0  0  0 
  2  3  2  0  0  0  0 
  4  3  1  0  0  0  0 
  5  4  1  0  0  0  0 
  4  6  2  0  0  0  0 
  7  5  2  0  0  0  0 
  8  6  1  0  0  0  0 
  7  9  1  0  0  0  0 
  9  8  2  0  0  0  0 
 10  9  1  0  0  0  0 
 10 11  1  0  0  0  0 
 12 11  1  0  0  0  0 
 13 11  2  0  0  0  0 
 14 12  2  0  0  0  0 
 15 13  1  0  0  0  0 
 16 14  1  0  0  0  0 
 16 15  2  0  0  0  0 
 16 17  1  0  0  0  0 
 17 18  2  0  0  0  0 
 18 19  2  0  0  0  0 
M  END
> <Name>
DIPHENYL METHANE DIISOCYANATE

> <Source>
DSSTox2DMolFile

> <Tox>
-5.301

> <CAS>
101-68-8

$$$$

  CDK

 13 14  0  0  0  0  0  0  0  0999 V2000
    3.4548   -2.6602    0.0000 N   0  0  0  0  0  0  0  0  0  0  0  0
    2.3009   -1.9969    0.0000 C   0  0  0  0  0  0  0  0  0  0  0  0
    4.6087   -1.9969    0.0000 C   0  0  0  0  0  0  0  0  0  0  0  0
    1.1539   -2.6602    0.0000 C   0  0  0  0  0  0  0  0  0  0  0  0
    2.3009   -0.6633    0.0000 C   0  0  0  0  0  0  0  0  0  0  0  0
    4.6087   -0.6633    0.0000 C   0  0  0  0  0  0  0  0  0  0  0  0
    5.7557   -2.6602    0.0000 C   0  0  0  0  0  0  0  0  0  0  0  0
    0.0000   -1.9969    0.0000 C   0  0  0  0  0  0  0  0  0  0  0  0
    1.1539   -0.0000    0.0000 C   0  0  0  0  0  0  0  0  0  0  0  0
    5.7557   -0.0000    0.0000 C   0  0  0  0  0  0  0  0  0  0  0  0
    6.9096   -1.9969    0.0000 C   0  0  0  0  0  0  0  0  0  0  0  0
    0.0000   -0.6633    0.0000 C   0  0  0  0  0  0  0  0  0  0  0  0
    6.9096   -0.6633    0.0000 C   0  0  0  0  0  0  0  0  0  0  0  0
  1  2  1  0  0  0  0 
  1  3  1  0  0  0  0 
  2  4  1  0  0  0  0 
  2  5  1  0  0  0  0 
  3  6  1  0  0  0  0 
  3  7  1  0  0  0  0 
  4  8  1  0  0  0  0 
  9  5  1  0  0  0  0 
  6 10  1  0  0  0  0 
 11  7  1  0  0  0  0 
  8 12  1  0  0  0  0 
 12  9  1  0  0  0  0 
 10 13  1  0  0  0  0 
 13 11  1  0  0  0  0 
M  END
> <Name>
DICYCLOHEXYLAMINE

> <Source>
DSSTox2DMolFile

> <Tox>
-1.471

> <CAS>
101-83-7

$$$$

  CDK

 13 14  0  0  0  0  0  0  0  0999 V2000
    1.1539   -2.6602    0.0000 C   0  0  0  0  0  0  0  0  0  0  0  0
    0.0000   -1.9969    0.0000 C   0  0  0  0  0  0  0  0  0  0  0  0
    2.3009   -1.9969    0.0000 C   0  0  0  0  0  0  0  0  0  0  0  0
    0.0000   -0.6633    0.0000 C   0  0  0  0  0  0  0  0  0  0  0  0
    2.3009   -0.6633    0.0000 C   0  0  0  0  0  0  0  0  0  0  0  0
    3.4548   -2.6602    0.0000 O   0  0  0  0  0  0  0  0  0  0  0  0
    1.1539   -0.0000    0.0000 C   0  0  0  0  0  0  0  0  0  0  0  0
    4.6087   -1.9969    0.0000 C   0  0  0  0  0  0  0  0  0  0  0  0
    4.6087   -0.6633    0.0000 C   0  0  0  0  0  0  0  0  0  0  0  0
    5.7557   -2.6602    0.0000 C   0  0  0  0  0  0  0  0  0  0  0  0
    5.7557   -0.0000    0.0000 C   0  0  0  0  0  0  0  0  0  0  0  0
    6.9096   -1.9969    0.0000 C   0  0  0  0  0  0  0  0  0  0  0  0
    6.9096   -0.6633    0.0000 C   0  0  0  0  0  0  0  0  0  0  0  0
  1  2  2  0  0  0  0 
  1  3  1  0  0  0  0 
  2  4  1  0  0  0  0 
  5  3  2  0  0  0  0 
  3  6  1  0  0  0  0 
  4  7  2  0  0  0  0 
  7  5  1  0  0  0  0 
  6  8  1  0  0  0  0 
  8  9  2  0  0  0  0 
  8 10  1  0  0  0  0 
  9 11  1  0  0  0  0 
 12 10  2  0  0  0  0 
 11 13  2  0  0  0  0 
 13 12  1  0  0  0  0 
M  END
> <Name>
DIPHENYL ETHER

> <Source>
DSSTox2DMolFile

> <Tox>
-1.648

> <CAS>
101-84-8

$$$$

  CDK

 13 13  0  0  0  0  0  0  0  0999 V2000
    3.4601   -0.6694    0.0000 O   0  0  0  0  0  0  0  0  0  0  0  0
    3.4601   -2.0002    0.0000 C   0  0  0  0  0  0  0  0  0  0  0  0
    4.6134   -2.6616    0.0000 N   0  0  0  0  0  0  0  0  0  0  0  0
    2.3067   -2.6616    0.0000 C   0  0  0  0  0  0  0  0  0  0  0  0
    5.7587   -2.0002    0.0000 C   0  0  0  0  0  0  0  0  0  0  0  0
    1.1534   -2.0002    0.0000 C   0  0  0  0  0  0  0  0  0  0  0  0
    5.7587   -0.6694    0.0000 C   0  0  0  0  0  0  0  0  0  0  0  0
    6.9121   -2.6616    0.0000 C   0  0  0  0  0  0  0  0  0  0  0  0
    1.1534   -0.6694    0.0000 O   0  0  0  0  0  0  0  0  0  0  0  0
    0.0000   -2.6616    0.0000 C   0  0  0  0  0  0  0  0  0  0  0  0
    6.9121   -0.0000    0.0000 C   0  0  0  0  0  0  0  0  0  0  0  0
    8.0654   -2.0002    0.0000 C   0  0  0  0  0  0  0  0  0  0  0  0
    8.0654   -0.6694    0.0000 C   0  0  0  0  0  0  0  0  0  0  0  0
  1  2  2  0  0  0  0 
  2  3  1  0  0  0  0 
  2  4  1  0  0  0  0 
  3  5  1  0  0  0  0 
  4  6  1  0  0  0  0 
  5  7  2  0  0  0  0 
  5  8  1  0  0  0  0 
  6  9  2  0  0  0  0 
  6 10  1  0  0  0  0 
  7 11  1  0  0  0  0 
 12  8  2  0  0  0  0 
 11 13  2  0  0  0  0 
 13 12  1  0  0  0  0 
M  END
> <Name>
ACETOACETANILIDE

> <Source>
DSSTox2DMolFile

> <Tox>
-4.280

> <CAS>
102-01-2

$$$$

  CDK

 16 17  0  0  0  0  0  0  0  0999 V2000
    4.6029   -0.6628    0.0000 O   0  0  0  0  0  0  0  0  0  0  0  0
    4.6029   -1.9977    0.0000 C   0  0  0  0  0  0  0  0  0  0  0  0
    5.7537   -2.6605    0.0000 N   0  0  0  0  0  0  0  0  0  0  0  0
    3.4522   -2.6605    0.0000 N   0  0  0  0  0  0  0  0  0  0  0  0
    6.9044   -1.9977    0.0000 C   0  0  0  0  0  0  0  0  0  0  0  0
    2.3015   -1.9977    0.0000 C   0  0  0  0  0  0  0  0  0  0  0  0
    6.9044   -0.6628    0.0000 C   0  0  0  0  0  0  0  0  0  0  0  0
    8.0551   -2.6605    0.0000 C   0  0  0  0  0  0  0  0  0  0  0  0
    1.1507   -2.6605    0.0000 C   0  0  0  0  0  0  0  0  0  0  0  0
    2.3015   -0.6628    0.0000 C   0  0  0  0  0  0  0  0  0  0  0  0
    8.0551   -0.0000    0.0000 C   0  0  0  0  0  0  0  0  0  0  0  0
    9.2059   -1.9977    0.0000 C   0  0  0  0  0  0  0  0  0  0  0  0
    0.0000   -1.9977    0.0000 C   0  0  0  0  0  0  0  0  0  0  0  0
    1.1507   -0.0000    0.0000 C   0  0  0  0  0  0  0  0  0  0  0  0
    9.2059   -0.6628    0.0000 C   0  0  0  0  0  0  0  0  0  0  0  0
    0.0000   -0.6628    0.0000 C   0  0  0  0  0  0  0  0  0  0  0  0
  1  2  2  0  0  0  0 
  2  3  1  0  0  0  0 
  2  4  1  0  0  0  0 
  3  5  1  0  0  0  0 
  4  6  1  0  0  0  0 
  5  7  2  0  0  0  0 
  5  8  1  0  0  0  0 
  6  9  2  0  0  0  0 
  6 10  1  0  0  0  0 
  7 11  1  0  0  0  0 
 12  8  2  0  0  0  0 
  9 13  1  0  0  0  0 
 14 10  2  0  0  0  0 
 11 15  2  0  0  0  0 
 15 12  1  0  0  0  0 
 13 16  2  0  0  0  0 
 16 14  1  0  0  0  0 
M  END
> <Name>
DIPHENYLUREA, SYM

> <Source>
DSSTox2DMolFile

> <Tox>
-5.123

> <CAS>
102-07-8

$$$$

  CDK

 16 17  0  0  0  0  0  0  0  0999 V2000
    4.6029   -0.6628    0.0000 O   0  0  0  0  0  0  0  0  0  0  0  0
    4.6029   -1.9977    0.0000 C   0  0  0  0  0  0  0  0  0  0  0  0
    5.7537   -2.6605    0.0000 O   0  0  0  0  0  0  0  0  0  0  0  0
    3.4522   -2.6605    0.0000 O   0  0  0  0  0  0  0  0  0  0  0  0
    6.9044   -1.9977    0.0000 C   0  0  0  0  0  0  0  0  0  0  0  0
    2.3015   -1.9977    0.0000 C   0  0  0  0  0  0  0  0  0  0  0  0
    6.9044   -0.6628    0.0000 C   0  0  0  0  0  0  0  0  0  0  0  0
    8.0551   -2.6605    0.0000 C   0  0  0  0  0  0  0  0  0  0  0  0
    1.1507   -2.6605    0.0000 C   0  0  0  0  0  0  0  0  0  0  0  0
    2.3015   -0.6628    0.0000 C   0  0  0  0  0  0  0  0  0  0  0  0
    8.0551   -0.0000    0.0000 C   0  0  0  0  0  0  0  0  0  0  0  0
    9.2059   -1.9977    0.0000 C   0  0  0  0  0  0  0  0  0  0  0  0
    0.0000   -1.9977    0.0000 C   0  0  0  0  0  0  0  0  0  0  0  0
    1.1507   -0.0000    0.0000 C   0  0  0  0  0  0  0  0  0  0  0  0
    9.2059   -0.6628    0.0000 C   0  0  0  0  0  0  0  0  0  0  0  0
    0.0000   -0.6628    0.0000 C   0  0  0  0  0  0  0  0  0  0  0  0
  1  2  2  0  0  0  0 
  2  3  1  0  0  0  0 
  2  4  1  0  0  0  0 
  3  5  1  0  0  0  0 
  4  6  1  0  0  0  0 
  5  7  2  0  0  0  0 
  5  8  1  0  0  0  0 
  6  9  2  0  0  0  0 
  6 10  1  0  0  0  0 
  7 11  1  0  0  0  0 
 12  8  2  0  0  0  0 
  9 13  1  0  0  0  0 
 14 10  2  0  0  0  0 
 11 15  2  0  0  0  0 
 15 12  1  0  0  0  0 
 13 16  2  0  0  0  0 
 16 14  1  0  0  0  0 
M  END
> <Name>
CARBONIC ACID, DIPHENYL ESTER

> <Source>
DSSTox2DMolFile

> <Tox>
-3.824

> <CAS>
102-09-0

$$$$

  CDK

 15 14  0  0  0  0  0  0  0  0999 V2000
    2.3130   -3.3284    0.0000 C   0  0  0  0  0  0  0  0  0  0  0  0
    3.4413   -3.9973    0.0000 C   0  0  0  0  0  0  0  0  0  0  0  0
    2.3130   -2.0148    0.0000 O   0  0  0  0  0  0  0  0  0  0  0  0
    4.6179   -3.3284    0.0000 C   0  0  0  0  0  0  0  0  0  0  0  0
    3.4413   -5.3110    0.0000 O   0  0  0  0  0  0  0  0  0  0  0  0
    1.1444   -1.3136    0.0000 C   0  0  0  0  0  0  0  0  0  0  0  0
    5.7462   -3.9973    0.0000 O   0  0  0  0  0  0  0  0  0  0  0  0
    4.6179   -6.0121    0.0000 C   0  0  0  0  0  0  0  0  0  0  0  0
    0.0000   -2.0148    0.0000 O   0  0  0  0  0  0  0  0  0  0  0  0
    1.1444   -0.0000    0.0000 C   0  0  0  0  0  0  0  0  0  0  0  0
    6.9147   -3.3284    0.0000 C   0  0  0  0  0  0  0  0  0  0  0  0
    5.7462   -5.3110    0.0000 O   0  0  0  0  0  0  0  0  0  0  0  0
    4.6179   -7.3258    0.0000 C   0  0  0  0  0  0  0  0  0  0  0  0
    6.9147   -2.0148    0.0000 O   0  0  0  0  0  0  0  0  0  0  0  0
    8.0591   -3.9973    0.0000 C   0  0  0  0  0  0  0  0  0  0  0  0
  1  2  1  0  0  0  0 
  1  3  1  0  0  0  0 
  2  4  1  0  0  0  0 
  2  5  1  0  0  0  0 
  3  6  1  0  0  0  0 
  4  7  1  0  0  0  0 
  5  8  1  0  0  0  0 
  6  9  2  0  0  0  0 
  6 10  1  0  0  0  0 
  7 11  1  0  0  0  0 
  8 12  2  0  0  0  0 
  8 13  1  0  0  0  0 
 11 14  2  0  0  0  0 
 11 15  1  0  0  0  0 
M  END
> <Name>
TRIACETIN

> <Source>
DSSTox2DMolFile

> <Tox>
-2.606

> <CAS>
102-76-1

$$$$

  CDK

 16 18  0  0  0  0  0  0  0  0999 V2000
    3.9607   -1.9847    0.0000 N   0  0  0  0  0  0  0  0  0  0  0  0
    4.1000   -0.6616    0.0000 C   0  0  0  0  0  0  0  0  0  0  0  0
    2.6550   -2.2633    0.0000 C   0  0  0  0  0  0  0  0  0  0  0  0
    2.8813   -0.1219    0.0000 S   0  0  0  0  0  0  0  0  0  0  0  0
    5.2490   -0.0000    0.0000 S   0  0  0  0  0  0  0  0  0  0  0  0
    1.9934   -1.1055    0.0000 C   0  0  0  0  0  0  0  0  0  0  0  0
    1.9934   -3.4123    0.0000 C   0  0  0  0  0  0  0  0  0  0  0  0
    6.3981   -0.6616    0.0000 N   0  0  0  0  0  0  0  0  0  0  0  0
    0.6616   -1.1055    0.0000 C   0  0  0  0  0  0  0  0  0  0  0  0
    0.6616   -3.4123    0.0000 C   0  0  0  0  0  0  0  0  0  0  0  0
    7.5558   -0.0000    0.0000 C   0  0  0  0  0  0  0  0  0  0  0  0
    6.3981   -1.9934    0.0000 C   0  0  0  0  0  0  0  0  0  0  0  0
    0.0000   -2.2633    0.0000 C   0  0  0  0  0  0  0  0  0  0  0  0
    8.7049   -0.6616    0.0000 C   0  0  0  0  0  0  0  0  0  0  0  0
    7.5558   -2.6550    0.0000 C   0  0  0  0  0  0  0  0  0  0  0  0
    8.7049   -1.9934    0.0000 O   0  0  0  0  0  0  0  0  0  0  0  0
  1  2  2  0  0  0  0 
  1  3  1  0  0  0  0 
  2  4  1  0  0  0  0 
  2  5  1  0  0  0  0 
  6  3  2  0  0  0  0 
  3  7  1  0  0  0  0 
  4  6  1  0  0  0  0 
  5  8  1  0  0  0  0 
  6  9  1  0  0  0  0 
  7 10  2  0  0  0  0 
  8 11  1  0  0  0  0 
  8 12  1  0  0  0  0 
 13  9  2  0  0  0  0 
 10 13  1  0  0  0  0 
 11 14  1  0  0  0  0 
 15 12  1  0  0  0  0 
 14 16  1  0  0  0  0 
 16 15  1  0  0  0  0 
M  END
> <Name>
Morpholine, 4-(2-benzothiazolylthio)-

> <Source>
DSSTox2DMolFile

> <Tox>
-5.476

> <CAS>
102-77-2

$$$$

  CDK

 13 12  0  0  0  0  0  0  0  0999 V2000
    3.9880   -1.1486    0.0000 N   0  0  0  0  0  0  0  0  0  0  0  0
    3.3260   -2.3051    0.0000 C   0  0  0  0  0  0  0  0  0  0  0  0
    3.3260   -0.0000    0.0000 C   0  0  0  0  0  0  0  0  0  0  0  0
    5.3201   -1.1486    0.0000 C   0  0  0  0  0  0  0  0  0  0  0  0
    1.9940   -2.3051    0.0000 C   0  0  0  0  0  0  0  0  0  0  0  0
    1.9940   -0.0000    0.0000 C   0  0  0  0  0  0  0  0  0  0  0  0
    5.9821   -2.3051    0.0000 C   0  0  0  0  0  0  0  0  0  0  0  0
    1.3320   -3.4536    0.0000 C   0  0  0  0  0  0  0  0  0  0  0  0
    1.3320   -1.1486    0.0000 C   0  0  0  0  0  0  0  0  0  0  0  0
    7.3141   -2.3051    0.0000 C   0  0  0  0  0  0  0  0  0  0  0  0
    0.0000   -3.4536    0.0000 C   0  0  0  0  0  0  0  0  0  0  0  0
    0.0000   -1.1486    0.0000 C   0  0  0  0  0  0  0  0  0  0  0  0
    7.9761   -3.4536    0.0000 C   0  0  0  0  0  0  0  0  0  0  0  0
  1  2  1  0  0  0  0 
  1  3  1  0  0  0  0 
  1  4  1  0  0  0  0 
  2  5  1  0  0  0  0 
  3  6  1  0  0  0  0 
  4  7  1  0  0  0  0 
  5  8  1  0  0  0  0 
  6  9  1  0  0  0  0 
  7 10  1  0  0  0  0 
  8 11  1  0  0  0  0 
  9 12  1  0  0  0  0 
 10 13  1  0  0  0  0 
M  END
> <Name>
TRI N-BUTYLAMINE

> <Source>
DSSTox2DMolFile

> <Tox>
-1.030

> <CAS>
102-82-9

$$$$

  CDK

 11 11  0  0  0  0  0  0  0  0999 V2000
   -3.9592    0.7948   -0.5948 O   0  0  0  0  0  0  0  0  0  0  0  0
   -3.0479   -0.2223   -0.1798 C   0  0  0  0  0  0  0  0  0  0  0  0
   -1.6208    0.2513   -0.4659 C   0  0  0  0  0  0  0  0  0  0  0  0
   -3.3028   -0.4946    1.2972 C   0  0  0  0  0  0  0  0  0  0  0  0
   -0.6280   -0.7445   -0.0924 N   0  0  0  0  0  0  0  0  0  0  0  0
    0.7193   -0.2796   -0.4160 C   0  0  0  0  0  0  0  0  0  0  0  0
    1.0147    1.0239    0.3342 C   0  0  0  0  0  0  0  0  0  0  0  0
    1.7433   -1.3642   -0.0638 C   0  0  0  0  0  0  0  0  0  0  0  0
    2.4439    1.5006    0.0804 C   0  0  0  0  0  0  0  0  0  0  0  0
    3.1714   -0.8846   -0.3177 C   0  0  0  0  0  0  0  0  0  0  0  0
    3.4662    0.4193    0.4185 C   0  0  0  0  0  0  0  0  0  0  0  0
  1  2  1  0  0  0  0 
  3  2  1  0  0  0  0 
  2  4  1  0  0  0  0 
  5  3  1  0  0  0  0 
  5  6  1  0  0  0  0 
  6  7  1  0  0  0  0 
  6  8  1  0  0  0  0 
  7  9  1  0  0  0  0 
  8 10  1  0  0  0  0 
  9 11  1  0  0  0  0 
 10 11  1  0  0  0  0 
M  END
> <Name>
1-CYCLOHEXYLAMINO-2-PROPANOL

> <Source>
Chemidplus3DMolFile

> <Tox>
-1.801

> <CAS>
103-00-4

$$$$

  CDK

 12 11  0  0  0  0  0  0  0  0999 V2000
    1.1568   -4.6548    0.0000 C   0  0  0  0  0  0  0  0  0  0  0  0
    1.1568   -5.9917    0.0000 O   0  0  0  0  0  0  0  0  0  0  0  0
    2.3136   -3.9968    0.0000 O   0  0  0  0  0  0  0  0  0  0  0  0
    0.0000   -3.9968    0.0000 C   0  0  0  0  0  0  0  0  0  0  0  0
    3.4704   -4.6548    0.0000 C   0  0  0  0  0  0  0  0  0  0  0  0
    4.6271   -3.9968    0.0000 C   0  0  0  0  0  0  0  0  0  0  0  0
    4.6271   -2.6668    0.0000 C   0  0  0  0  0  0  0  0  0  0  0  0
    5.7839   -4.6548    0.0000 C   0  0  0  0  0  0  0  0  0  0  0  0
    5.7839   -1.9880    0.0000 C   0  0  0  0  0  0  0  0  0  0  0  0
    6.9269   -3.9968    0.0000 C   0  0  0  0  0  0  0  0  0  0  0  0
    5.7839   -0.6581    0.0000 C   0  0  0  0  0  0  0  0  0  0  0  0
    6.9269   -0.0000    0.0000 C   0  0  0  0  0  0  0  0  0  0  0  0
  1  2  2  0  0  0  0 
  1  3  1  0  0  0  0 
  1  4  1  0  0  0  0 
  3  5  1  0  0  0  0 
  5  6  1  0  0  0  0 
  6  7  1  0  0  0  0 
  6  8  1  0  0  0  0 
  7  9  1  0  0  0  0 
  8 10  1  0  0  0  0 
  9 11  1  0  0  0  0 
 11 12  1  0  0  0  0 
M  END
> <Name>
2-ETHYLHEXYLACETATE

> <Source>
DSSTox2DMolFile

> <Tox>
-0.638

> <CAS>
103-09-3

$$$$

  CDK

 12 12  0  0  0  0  0  0  0  0999 V2000
   -2.4343    0.2172   -0.0016 C   0  0  0  0  0  0  0  0  0  0  0  0
   -1.0217   -0.2073   -0.0020 C   0  0  0  0  0  0  0  0  0  0  0  0
   -2.8867    1.3476   -0.0053 O   0  0  0  0  0  0  0  0  0  0  0  0
   -3.2990   -0.8455    0.0037 O   0  0  0  0  0  0  0  0  0  0  0  0
   -0.0168    0.6799    0.0006 C   0  0  0  0  0  0  0  0  0  0  0  0
   -4.6859   -0.5870    0.0029 C   0  0  0  0  0  0  0  0  0  0  0  0
    1.3854    0.2749    0.0004 C   0  0  0  0  0  0  0  0  0  0  0  0
    1.7473   -1.0762   -0.0021 C   0  0  0  0  0  0  0  0  0  0  0  0
    2.3853    1.2535    0.0028 C   0  0  0  0  0  0  0  0  0  0  0  0
    3.0865   -1.4435   -0.0023 C   0  0  0  0  0  0  0  0  0  0  0  0
    3.7238    0.8807    0.0026 C   0  0  0  0  0  0  0  0  0  0  0  0
    4.0763   -0.4655    0.0001 C   0  0  0  0  0  0  0  0  0  0  0  0
  1  2  1  0  0  0  0 
  1  3  2  0  0  0  0 
  1  4  1  0  0  0  0 
  2  5  2  0  0  0  0 
  4  6  1  0  0  0  0 
  5  7  1  0  0  0  0 
  7  8  1  0  0  0  0 
  7  9  2  0  0  0  0 
  8 10  2  0  0  0  0 
 11  9  1  0  0  0  0 
 10 12  1  0  0  0  0 
 12 11  2  0  0  0  0 
M  END
> <Name>
CINNAMIC ACID, METHYL ESTER

> <Source>
DougDB3DMolFile

> <Tox>
-1.462

> <CAS>
103-26-4

$$$$

  CDK

 14 15  0  0  0  0  0  0  0  0999 V2000
    0.4100   -0.0433    0.6426 C   0  0  0  0  0  0  0  0  0  0  0  0
    1.8731   -0.0200    0.3399 C   0  0  0  0  0  0  0  0  0  0  0  0
   -0.4102   -0.0385   -0.6440 C   0  0  0  0  0  0  0  0  0  0  0  0
    2.6176   -1.1999    0.3585 C   0  0  0  0  0  0  0  0  0  0  0  0
    2.5046    1.1872    0.0347 C   0  0  0  0  0  0  0  0  0  0  0  0
   -1.8732   -0.0176   -0.3406 C   0  0  0  0  0  0  0  0  0  0  0  0
    3.9788   -1.1711    0.0755 C   0  0  0  0  0  0  0  0  0  0  0  0
    3.8652    1.2122   -0.2478 C   0  0  0  0  0  0  0  0  0  0  0  0
   -2.5064    1.1883   -0.0339 C   0  0  0  0  0  0  0  0  0  0  0  0
   -2.6159   -1.1986   -0.3597 C   0  0  0  0  0  0  0  0  0  0  0  0
    4.6039    0.0335   -0.2276 C   0  0  0  0  0  0  0  0  0  0  0  0
   -3.8668    1.2108    0.2496 C   0  0  0  0  0  0  0  0  0  0  0  0
   -3.9769   -1.1722   -0.0759 C   0  0  0  0  0  0  0  0  0  0  0  0
   -4.6038    0.0312    0.2288 C   0  0  0  0  0  0  0  0  0  0  0  0
  1  2  1  0  0  0  0 
  1  3  1  0  0  0  0 
  2  4  1  0  0  0  0 
  2  5  2  0  0  0  0 
  3  6  1  0  0  0  0 
  4  7  2  0  0  0  0 
  8  5  1  0  0  0  0 
  6  9  1  0  0  0  0 
  6 10  2  0  0  0  0 
  7 11  1  0  0  0  0 
 11  8  2  0  0  0  0 
  9 12  2  0  0  0  0 
 13 10  1  0  0  0  0 
 12 14  1  0  0  0  0 
 14 13  2  0  0  0  0 
M  END
> <Name>
BIBENZYL

> <Source>
DougDB3DMolFile

> <Tox>
-2.138

> <CAS>
103-29-7

$$$$

  CDK

 14 15  0  0  0  0  0  0  0  0999 V2000
    2.6619   -1.1581    0.0000 C   0  0  0  0  0  0  0  0  0  0  0  0
    1.9964   -2.3075    0.0000 C   0  0  0  0  0  0  0  0  0  0  0  0
    1.9964   -0.0000    0.0000 C   0  0  0  0  0  0  0  0  0  0  0  0
    3.9928   -1.1581    0.0000 C   0  0  0  0  0  0  0  0  0  0  0  0
    0.6655   -2.3075    0.0000 C   0  0  0  0  0  0  0  0  0  0  0  0
    0.6655   -0.0000    0.0000 C   0  0  0  0  0  0  0  0  0  0  0  0
    4.6497   -2.3075    0.0000 C   0  0  0  0  0  0  0  0  0  0  0  0
    0.0000   -1.1581    0.0000 C   0  0  0  0  0  0  0  0  0  0  0  0
    5.9806   -2.3075    0.0000 C   0  0  0  0  0  0  0  0  0  0  0  0
    6.6461   -1.1581    0.0000 C   0  0  0  0  0  0  0  0  0  0  0  0
    6.6461   -3.4570    0.0000 C   0  0  0  0  0  0  0  0  0  0  0  0
    7.9770   -1.1581    0.0000 C   0  0  0  0  0  0  0  0  0  0  0  0
    7.9770   -3.4570    0.0000 C   0  0  0  0  0  0  0  0  0  0  0  0
    8.6425   -2.3075    0.0000 C   0  0  0  0  0  0  0  0  0  0  0  0
  1  2  2  0  0  0  0 
  1  3  1  0  0  0  0 
  1  4  1  0  0  0  0 
  2  5  1  0  0  0  0 
  6  3  2  0  0  0  0 
  4  7  2  0  0  0  0 
  5  8  2  0  0  0  0 
  8  6  1  0  0  0  0 
  7  9  1  0  0  0  0 
  9 10  2  0  0  0  0 
  9 11  1  0  0  0  0 
 10 12  1  0  0  0  0 
 13 11  2  0  0  0  0 
 12 14  2  0  0  0  0 
 14 13  1  0  0  0  0 
M  END
> <Name>
STILBENE (TRANS)

> <Source>
DSSTox2DMolFile

> <Tox>
-3.055

> <CAS>
103-30-0

$$$$

  CDK

 14 15  0  0  0  0  0  0  0  0999 V2000
    4.6497   -2.3075    0.0000 N   0  0  0  0  0  0  0  0  0  0  0  0
    3.9928   -1.1581    0.0000 N   0  0  0  0  0  0  0  0  0  0  0  0
    5.9806   -2.3075    0.0000 C   0  0  0  0  0  0  0  0  0  0  0  0
    2.6619   -1.1581    0.0000 C   0  0  0  0  0  0  0  0  0  0  0  0
    6.6461   -1.1581    0.0000 C   0  0  0  0  0  0  0  0  0  0  0  0
    6.6461   -3.4570    0.0000 C   0  0  0  0  0  0  0  0  0  0  0  0
    1.9964   -2.3075    0.0000 C   0  0  0  0  0  0  0  0  0  0  0  0
    1.9964   -0.0000    0.0000 C   0  0  0  0  0  0  0  0  0  0  0  0
    7.9770   -1.1581    0.0000 C   0  0  0  0  0  0  0  0  0  0  0  0
    7.9770   -3.4570    0.0000 C   0  0  0  0  0  0  0  0  0  0  0  0
    0.6655   -2.3075    0.0000 C   0  0  0  0  0  0  0  0  0  0  0  0
    0.6655   -0.0000    0.0000 C   0  0  0  0  0  0  0  0  0  0  0  0
    8.6425   -2.3075    0.0000 C   0  0  0  0  0  0  0  0  0  0  0  0
    0.0000   -1.1581    0.0000 C   0  0  0  0  0  0  0  0  0  0  0  0
  1  2  2  0  0  0  0 
  1  3  1  0  0  0  0 
  2  4  1  0  0  0  0 
  3  5  2  0  0  0  0 
  3  6  1  0  0  0  0 
  4  7  2  0  0  0  0 
  4  8  1  0  0  0  0 
  5  9  1  0  0  0  0 
 10  6  2  0  0  0  0 
  7 11  1  0  0  0  0 
 12  8  2  0  0  0  0 
  9 13  2  0  0  0  0 
 13 10  1  0  0  0  0 
 11 14  2  0  0  0  0 
 14 12  1  0  0  0  0 
M  END
> <Name>
AZOBENZENE

> <Source>
DSSTox2DMolFile

> <Tox>
-3.442

> <CAS>
103-33-3

$$$$

  CDK

 18 19  0  0  0  0  0  0  0  0999 V2000
   -0.0465    1.2749   -0.0043 C   0  0  0  0  0  0  0  0  0  0  0  0
    1.1703    0.4404   -0.0058 C   0  0  0  0  0  0  0  0  0  0  0  0
   -0.1326    2.4896   -0.0021 O   0  0  0  0  0  0  0  0  0  0  0  0
   -1.1859    0.5196   -0.0059 O   0  0  0  0  0  0  0  0  0  0  0  0
    2.3971    0.9808    0.0033 C   0  0  0  0  0  0  0  0  0  0  0  0
   -2.4404    1.1977   -0.0059 C   0  0  0  0  0  0  0  0  0  0  0  0
    3.6101    0.1692    0.0021 C   0  0  0  0  0  0  0  0  0  0  0  0
   -3.5587    0.1962   -0.0014 C   0  0  0  0  0  0  0  0  0  0  0  0
    3.5449   -1.2280   -0.0084 C   0  0  0  0  0  0  0  0  0  0  0  0
    4.8598    0.7982    0.0118 C   0  0  0  0  0  0  0  0  0  0  0  0
   -3.3669   -1.1841    0.0013 C   0  0  0  0  0  0  0  0  0  0  0  0
   -4.8609    0.7081    0.0000 C   0  0  0  0  0  0  0  0  0  0  0  0
    4.7094   -1.9844   -0.0094 C   0  0  0  0  0  0  0  0  0  0  0  0
    6.0220    0.0367    0.0108 C   0  0  0  0  0  0  0  0  0  0  0  0
   -4.4649   -2.0402    0.0053 C   0  0  0  0  0  0  0  0  0  0  0  0
   -5.9523   -0.1496    0.0040 C   0  0  0  0  0  0  0  0  0  0  0  0
    5.9493   -1.3530    0.0002 C   0  0  0  0  0  0  0  0  0  0  0  0
   -5.7559   -1.5276    0.0067 C   0  0  0  0  0  0  0  0  0  0  0  0
  1  2  1  0  0  0  0 
  1  3  2  0  0  0  0 
  1  4  1  0  0  0  0 
  2  5  2  0  0  0  0 
  4  6  1  0  0  0  0 
  5  7  1  0  0  0  0 
  6  8  1  0  0  0  0 
  7  9  1  0  0  0  0 
  7 10  2  0  0  0  0 
  8 11  1  0  0  0  0 
  8 12  2  0  0  0  0 
  9 13  2  0  0  0  0 
 14 10  1  0  0  0  0 
 11 15  2  0  0  0  0 
 16 12  1  0  0  0  0 
 13 17  1  0  0  0  0 
 17 14  2  0  0  0  0 
 15 18  1  0  0  0  0 
 18 16  2  0  0  0  0 
M  END
> <Name>
BENZYL CINNAMATE

> <Source>
DougDB3DMolFile

> <Tox>
-5.000

> <CAS>
103-41-3

$$$$

  CDK

 15 16  0  0  0  0  0  0  0  0999 V2000
    1.7490    1.4992    0.0000 C   0  0  0  0  0  0  0  0  0  0  0  0
    0.8495    1.9989    0.0000 C   0  0  0  0  0  0  0  0  0  0  0  0
    2.5986    1.9989    0.0000 C   0  0  0  0  0  0  0  0  0  0  0  0
    1.7490    0.4997    0.0000 C   0  0  0  0  0  0  0  0  0  0  0  0
    0.0000    1.4992    0.0000 C   0  0  0  0  0  0  0  0  0  0  0  0
    3.4481    1.4992    0.0000 N   0  0  0  0  0  0  0  0  0  0  0  0
    0.8495    0.0000    0.0000 C   0  0  0  0  0  0  0  0  0  0  0  0
    0.0000    0.4997    0.0000 C   0  0  0  0  0  0  0  0  0  0  0  0
    4.3476    1.9989    0.0000 C   0  0  0  0  0  0  0  0  0  0  0  0
    5.1972    1.4992    0.0000 C   0  0  0  0  0  0  0  0  0  0  0  0
    6.0467    1.9989    0.0000 C   0  0  0  0  0  0  0  0  0  0  0  0
    5.1972    0.4997    0.0000 C   0  0  0  0  0  0  0  0  0  0  0  0
    6.8962    1.4992    0.0000 C   0  0  0  0  0  0  0  0  0  0  0  0
    6.0467    0.0000    0.0000 C   0  0  0  0  0  0  0  0  0  0  0  0
    6.9462    0.4997    0.0000 C   0  0  0  0  0  0  0  0  0  0  0  0
  2  1  2  0  0  0  0 
  1  3  1  0  0  0  0 
  1  4  1  0  0  0  0 
  5  2  1  0  0  0  0 
  3  6  1  0  0  0  0 
  4  7  2  0  0  0  0 
  8  5  2  0  0  0  0 
  6  9  1  0  0  0  0 
  7  8  1  0  0  0  0 
  9 10  1  0  0  0  0 
 10 11  2  0  0  0  0 
 12 10  1  0  0  0  0 
 11 13  1  0  0  0  0 
 14 12  2  0  0  0  0 
 13 15  2  0  0  0  0 
 15 14  1  0  0  0  0 
M  END
> <Name>
DIBENZYL AMINE

> <Source>
NIST2DMolFile

> <Tox>
-3.102

> <CAS>
103-49-1

$$$$

  CDK

 15 16  0  0  0  0  0  0  0  0999 V2000
    4.6040   -1.9981    0.0000 O   0  0  0  0  0  0  0  0  0  0  0  0
    5.7550   -2.6611    0.0000 C   0  0  0  0  0  0  0  0  0  0  0  0
    3.4530   -2.6611    0.0000 C   0  0  0  0  0  0  0  0  0  0  0  0
    6.9060   -1.9981    0.0000 C   0  0  0  0  0  0  0  0  0  0  0  0
    2.3020   -1.9981    0.0000 C   0  0  0  0  0  0  0  0  0  0  0  0
    6.9060   -0.6630    0.0000 C   0  0  0  0  0  0  0  0  0  0  0  0
    8.0570   -2.6611    0.0000 C   0  0  0  0  0  0  0  0  0  0  0  0
    1.1510   -2.6611    0.0000 C   0  0  0  0  0  0  0  0  0  0  0  0
    2.3020   -0.6630    0.0000 C   0  0  0  0  0  0  0  0  0  0  0  0
    8.0570   -0.0000    0.0000 C   0  0  0  0  0  0  0  0  0  0  0  0
    9.2080   -1.9981    0.0000 C   0  0  0  0  0  0  0  0  0  0  0  0
    0.0000   -1.9981    0.0000 C   0  0  0  0  0  0  0  0  0  0  0  0
    1.1510   -0.0000    0.0000 C   0  0  0  0  0  0  0  0  0  0  0  0
    9.2080   -0.6630    0.0000 C   0  0  0  0  0  0  0  0  0  0  0  0
    0.0000   -0.6630    0.0000 C   0  0  0  0  0  0  0  0  0  0  0  0
  1  2  1  0  0  0  0 
  1  3  1  0  0  0  0 
  2  4  1  0  0  0  0 
  3  5  1  0  0  0  0 
  4  6  2  0  0  0  0 
  4  7  1  0  0  0  0 
  5  8  2  0  0  0  0 
  5  9  1  0  0  0  0 
  6 10  1  0  0  0  0 
 11  7  2  0  0  0  0 
  8 12  1  0  0  0  0 
 13  9  2  0  0  0  0 
 10 14  2  0  0  0  0 
 14 11  1  0  0  0  0 
 12 15  2  0  0  0  0 
 15 13  1  0  0  0  0 
M  END
> <Name>
DIBENZYL ETHER

> <Source>
DSSTox2DMolFile

> <Tox>
-2.987

> <CAS>
103-50-4

$$$$

  CDK

  9  9  0  0  0  0  0  0  0  0999 V2000
   -0.0308    0.0301   -0.3496 C   0  0  0  0  0  0  0  0  0  0  0  0
   -0.6906   -1.1917   -0.2065 C   0  0  0  0  0  0  0  0  0  0  0  0
   -0.7379    1.2191   -0.1664 C   0  0  0  0  0  0  0  0  0  0  0  0
    1.4236    0.0621   -0.6911 C   0  0  0  0  0  0  0  0  0  0  0  0
   -2.0426   -1.2220    0.1155 C   0  0  0  0  0  0  0  0  0  0  0  0
   -2.0901    1.1850    0.1553 C   0  0  0  0  0  0  0  0  0  0  0  0
    2.2799   -0.0351    0.5647 C   0  0  0  0  0  0  0  0  0  0  0  0
   -2.7438   -0.0344    0.2965 C   0  0  0  0  0  0  0  0  0  0  0  0
    3.7539   -0.0110    0.2299 C   0  0  0  0  0  0  0  0  0  0  0  0
  1  2  1  0  0  0  0 
  1  3  2  0  0  0  0 
  1  4  1  0  0  0  0 
  2  5  2  0  0  0  0 
  6  3  1  0  0  0  0 
  4  7  1  0  0  0  0 
  5  8  1  0  0  0  0 
  8  6  2  0  0  0  0 
  7  9  1  0  0  0  0 
M  END
> <Name>
N-PROPYLBENZENE

> <Source>
DougDB3DMolFile

> <Tox>
0.534

> <CAS>
103-65-1

$$$$

  CDK

  9  9  0  0  0  0  0  0  0  0999 V2000
    0.0000   -0.0000    0.0000 O   0  0  0  0  0  0  0  0  0  0  0  0
    1.3283   -0.0000    0.0000 C   0  0  0  0  0  0  0  0  0  0  0  0
    1.9925   -1.1548    0.0000 N   0  0  0  0  0  0  0  0  0  0  0  0
    3.3269   -1.1548    0.0000 C   0  0  0  0  0  0  0  0  0  0  0  0
    3.9910   -0.0000    0.0000 C   0  0  0  0  0  0  0  0  0  0  0  0
    3.9910   -2.3037    0.0000 C   0  0  0  0  0  0  0  0  0  0  0  0
    5.3194   -0.0000    0.0000 C   0  0  0  0  0  0  0  0  0  0  0  0
    5.3194   -2.3037    0.0000 C   0  0  0  0  0  0  0  0  0  0  0  0
    5.9836   -1.1548    0.0000 C   0  0  0  0  0  0  0  0  0  0  0  0
  1  2  2  0  0  0  0 
  2  3  1  0  0  0  0 
  3  4  1  0  0  0  0 
  4  5  2  0  0  0  0 
  4  6  1  0  0  0  0 
  5  7  1  0  0  0  0 
  8  6  2  0  0  0  0 
  7  9  2  0  0  0  0 
  9  8  1  0  0  0  0 
M  END
> <Name>
FORMANILIDE

> <Source>
DSSTox2DMolFile

> <Tox>
-2.447

> <CAS>
103-70-8

$$$$

  CDK

  9  9  0  0  0  0  0  0  0  0999 V2000
    0.0000   -1.3304    0.0000 S   0  0  0  0  0  0  0  0  0  0  0  0
    1.1518   -1.9984    0.0000 C   0  0  0  0  0  0  0  0  0  0  0  0
    2.3037   -2.6607    0.0000 N   0  0  0  0  0  0  0  0  0  0  0  0
    3.4555   -1.9984    0.0000 C   0  0  0  0  0  0  0  0  0  0  0  0
    3.4555   -0.6681    0.0000 C   0  0  0  0  0  0  0  0  0  0  0  0
    4.6073   -2.6607    0.0000 C   0  0  0  0  0  0  0  0  0  0  0  0
    4.6073   -0.0000    0.0000 C   0  0  0  0  0  0  0  0  0  0  0  0
    5.7591   -1.9984    0.0000 C   0  0  0  0  0  0  0  0  0  0  0  0
    5.7591   -0.6681    0.0000 C   0  0  0  0  0  0  0  0  0  0  0  0
  1  2  2  0  0  0  0 
  2  3  2  0  0  0  0 
  3  4  1  0  0  0  0 
  4  5  2  0  0  0  0 
  4  6  1  0  0  0  0 
  5  7  1  0  0  0  0 
  8  6  2  0  0  0  0 
  7  9  2  0  0  0  0 
  9  8  1  0  0  0  0 
M  END
> <Name>
PHENYLISOTHIOCYANATE

> <Source>
DSSTox2DMolFile

> <Tox>
0.176

> <CAS>
103-72-0

$$$$

  CDK

  9  9  0  0  0  0  0  0  0  0999 V2000
    1.2417    4.4521    1.5595 C   0  0  0  0  0  0  0  0  0  0  0  0
    1.6094    3.3467    0.7508 O   0  0  0  0  0  0  0  0  0  0  0  0
    0.8001    4.0316    2.9492 C   0  0  0  0  0  0  0  0  0  0  0  0
    2.8941    2.8589    0.9048 C   0  0  0  0  0  0  0  0  0  0  0  0
    3.9549    3.5996    1.4371 C   0  0  0  0  0  0  0  0  0  0  0  0
    3.0993    1.5593    0.4207 C   0  0  0  0  0  0  0  0  0  0  0  0
    5.2227    3.0327    1.4858 C   0  0  0  0  0  0  0  0  0  0  0  0
    4.3752    1.0140    0.4763 C   0  0  0  0  0  0  0  0  0  0  0  0
    5.4351    1.7443    1.0075 C   0  0  0  0  0  0  0  0  0  0  0  0
  1  2  1  0  0  0  0 
  1  3  1  0  0  0  0 
  2  4  1  0  0  0  0 
  4  5  2  0  0  0  0 
  6  4  1  0  0  0  0 
  5  7  1  0  0  0  0 
  8  6  2  0  0  0  0 
  7  9  2  0  0  0  0 
  9  8  1  0  0  0  0 
M  END
> <Name>
ETHOXYBENZENE

> <Source>
NIST3DMolFile

> <Tox>
0.185

> <CAS>
103-73-1

$$$$

  CDK

 10 10  0  0  0  0  0  0  0  0999 V2000
    0.0000   -2.6612    0.0000 O   0  0  0  0  0  0  0  0  0  0  0  0
    1.1520   -1.9988    0.0000 C   0  0  0  0  0  0  0  0  0  0  0  0
    2.3041   -2.6612    0.0000 C   0  0  0  0  0  0  0  0  0  0  0  0
    1.1520   -0.6682    0.0000 O   0  0  0  0  0  0  0  0  0  0  0  0
    3.4561   -1.9988    0.0000 C   0  0  0  0  0  0  0  0  0  0  0  0
    3.4561   -0.6682    0.0000 C   0  0  0  0  0  0  0  0  0  0  0  0
    4.6082   -2.6612    0.0000 C   0  0  0  0  0  0  0  0  0  0  0  0
    4.6082   -0.0000    0.0000 C   0  0  0  0  0  0  0  0  0  0  0  0
    5.7602   -1.9988    0.0000 C   0  0  0  0  0  0  0  0  0  0  0  0
    5.7602   -0.6682    0.0000 C   0  0  0  0  0  0  0  0  0  0  0  0
  1  2  1  0  0  0  0 
  2  3  1  0  0  0  0 
  2  4  2  0  0  0  0 
  3  5  1  0  0  0  0 
  5  6  2  0  0  0  0 
  5  7  1  0  0  0  0 
  6  8  1  0  0  0  0 
  9  7  2  0  0  0  0 
  8 10  2  0  0  0  0 
 10  9  1  0  0  0  0 
M  END
> <Name>
PHENYLACETIC ACID

> <Source>
DSSTox2DMolFile

> <Tox>
-2.420

> <CAS>
103-82-2

$$$$

  CDK

 10 10  0  0  0  0  0  0  0  0999 V2000
    1.1520   -2.6612    0.0000 C   0  0  0  0  0  0  0  0  0  0  0  0
    0.0000   -1.9988    0.0000 C   0  0  0  0  0  0  0  0  0  0  0  0
    2.3041   -1.9988    0.0000 C   0  0  0  0  0  0  0  0  0  0  0  0
    0.0000   -0.6682    0.0000 C   0  0  0  0  0  0  0  0  0  0  0  0
    2.3041   -0.6682    0.0000 C   0  0  0  0  0  0  0  0  0  0  0  0
    3.4561   -2.6612    0.0000 N   0  0  0  0  0  0  0  0  0  0  0  0
    1.1520   -0.0000    0.0000 C   0  0  0  0  0  0  0  0  0  0  0  0
    4.6082   -1.9988    0.0000 C   0  0  0  0  0  0  0  0  0  0  0  0
    5.7602   -2.6612    0.0000 C   0  0  0  0  0  0  0  0  0  0  0  0
    4.6082   -0.6682    0.0000 O   0  0  0  0  0  0  0  0  0  0  0  0
  1  2  2  0  0  0  0 
  1  3  1  0  0  0  0 
  2  4  1  0  0  0  0 
  5  3  2  0  0  0  0 
  3  6  1  0  0  0  0 
  4  7  2  0  0  0  0 
  7  5  1  0  0  0  0 
  6  8  1  0  0  0  0 
  8  9  1  0  0  0  0 
  8 10  2  0  0  0  0 
M  END
> <Name>
ACETANILIDE

> <Source>
DSSTox2DMolFile

> <Tox>
-3.699

> <CAS>
103-84-4

$$$$

  CDK

 10 10  0  0  0  0  0  0  0  0999 V2000
   -1.7107    0.0397    0.0000 C   0  0  0  0  0  0  0  0  0  0  0  0
   -1.2152   -1.2630    0.0000 C   0  0  0  0  0  0  0  0  0  0  0  0
   -0.8501    1.1342    0.0000 C   0  0  0  0  0  0  0  0  0  0  0  0
   -3.3765    0.2938    0.0000 Cl  0  0  0  0  0  0  0  0  0  0  0  0
    0.1562   -1.4793    0.0000 C   0  0  0  0  0  0  0  0  0  0  0  0
    0.5234    0.9288    0.0000 C   0  0  0  0  0  0  0  0  0  0  0  0
    1.0259   -0.3794    0.0000 C   0  0  0  0  0  0  0  0  0  0  0  0
    2.4166   -0.6663    0.0000 N   0  0  0  0  0  0  0  0  0  0  0  0
    3.4037    0.1202    0.0000 C   0  0  0  0  0  0  0  0  0  0  0  0
    4.4552    0.6491    0.0000 O   0  0  0  0  0  0  0  0  0  0  0  0
  1  2  1  0  0  0  0 
  1  3  2  0  0  0  0 
  1  4  1  0  0  0  0 
  2  5  2  0  0  0  0 
  6  3  1  0  0  0  0 
  5  7  1  0  0  0  0 
  7  6  2  0  0  0  0 
  7  8  1  0  0  0  0 
  8  9  2  0  0  0  0 
  9 10  2  0  0  0  0 
M  END
> <Name>
1-CHLORO-4-ISOCYANATOBENZENE

> <Source>
DougDB3DMolFile

> <Tox>
-0.712

> <CAS>
104-12-1

$$$$

  CDK

 16 16  0  0  0  0  0  0  0  0999 V2000
    0.0000   -2.6554    0.0000 C   0  0  0  0  0  0  0  0  0  0  0  0
    1.1479   -1.9916    0.0000 C   0  0  0  0  0  0  0  0  0  0  0  0
    2.3097   -2.6554    0.0000 C   0  0  0  0  0  0  0  0  0  0  0  0
    3.4576   -1.9916    0.0000 C   0  0  0  0  0  0  0  0  0  0  0  0
    4.6055   -2.6554    0.0000 C   0  0  0  0  0  0  0  0  0  0  0  0
    5.7672   -1.9916    0.0000 C   0  0  0  0  0  0  0  0  0  0  0  0
    6.9151   -2.6554    0.0000 C   0  0  0  0  0  0  0  0  0  0  0  0
    8.0630   -1.9916    0.0000 C   0  0  0  0  0  0  0  0  0  0  0  0
    9.2248   -2.6554    0.0000 C   0  0  0  0  0  0  0  0  0  0  0  0
   10.3727   -1.9916    0.0000 C   0  0  0  0  0  0  0  0  0  0  0  0
   10.3727   -0.6639    0.0000 C   0  0  0  0  0  0  0  0  0  0  0  0
   11.5206   -2.6554    0.0000 C   0  0  0  0  0  0  0  0  0  0  0  0
   11.5206   -0.0000    0.0000 C   0  0  0  0  0  0  0  0  0  0  0  0
   12.6823   -1.9916    0.0000 C   0  0  0  0  0  0  0  0  0  0  0  0
   12.6823   -0.6639    0.0000 C   0  0  0  0  0  0  0  0  0  0  0  0
   13.8302   -0.0000    0.0000 O   0  0  0  0  0  0  0  0  0  0  0  0
  1  2  1  0  0  0  0 
  2  3  1  0  0  0  0 
  3  4  1  0  0  0  0 
  4  5  1  0  0  0  0 
  5  6  1  0  0  0  0 
  6  7  1  0  0  0  0 
  7  8  1  0  0  0  0 
  8  9  1  0  0  0  0 
  9 10  1  0  0  0  0 
 10 11  2  0  0  0  0 
 10 12  1  0  0  0  0 
 11 13  1  0  0  0  0 
 14 12  2  0  0  0  0 
 13 15  2  0  0  0  0 
 15 14  1  0  0  0  0 
 15 16  1  0  0  0  0 
M  END
> <Name>
P-NONYLPHENOL

> <Source>
DSSTox2DMolFile

> <Tox>
-3.087

> <CAS>
104-40-5

$$$$

  CDK

 10 10  0  0  0  0  0  0  0  0999 V2000
    4.6098   -1.9973    0.0000 C   0  0  0  0  0  0  0  0  0  0  0  0
    3.4556   -2.6608    0.0000 C   0  0  0  0  0  0  0  0  0  0  0  0
    4.6098   -0.6635    0.0000 C   0  0  0  0  0  0  0  0  0  0  0  0
    5.7570   -2.6608    0.0000 C   0  0  0  0  0  0  0  0  0  0  0  0
    2.3014   -1.9973    0.0000 C   0  0  0  0  0  0  0  0  0  0  0  0
    5.7570   -0.0000    0.0000 C   0  0  0  0  0  0  0  0  0  0  0  0
    6.9112   -1.9973    0.0000 C   0  0  0  0  0  0  0  0  0  0  0  0
    1.1542   -2.6608    0.0000 C   0  0  0  0  0  0  0  0  0  0  0  0
    6.9112   -0.6635    0.0000 C   0  0  0  0  0  0  0  0  0  0  0  0
    0.0000   -1.9973    0.0000 C   0  0  0  0  0  0  0  0  0  0  0  0
  1  2  1  0  0  0  0 
  1  3  1  0  0  0  0 
  1  4  2  0  0  0  0 
  2  5  1  0  0  0  0 
  3  6  2  0  0  0  0 
  7  4  1  0  0  0  0 
  5  8  1  0  0  0  0 
  6  9  1  0  0  0  0 
  9  7  2  0  0  0  0 
  8 10  1  0  0  0  0 
M  END
> <Name>
N-BUTYLBENZENE

> <Source>
DSSTox2DMolFile

> <Tox>
0.025

> <CAS>
104-51-8

$$$$

  CDK

 10 10  0  0  0  0  0  0  0  0999 V2000
    3.2480    0.4119    0.1915 C   0  0  0  0  0  0  0  0  0  0  0  0
    1.8310   -0.0576    0.1255 C   0  0  0  0  0  0  0  0  0  0  0  0
    4.1703   -0.5609   -0.2231 O   0  0  0  0  0  0  0  0  0  0  0  0
    0.7980    0.7889    0.0574 C   0  0  0  0  0  0  0  0  0  0  0  0
   -0.5906    0.3395    0.0235 C   0  0  0  0  0  0  0  0  0  0  0  0
   -0.9098   -1.0210    0.0790 C   0  0  0  0  0  0  0  0  0  0  0  0
   -1.6210    1.2813   -0.0659 C   0  0  0  0  0  0  0  0  0  0  0  0
   -2.2354   -1.4333    0.0452 C   0  0  0  0  0  0  0  0  0  0  0  0
   -2.9458    0.8639   -0.0994 C   0  0  0  0  0  0  0  0  0  0  0  0
   -3.2554   -0.4916   -0.0441 C   0  0  0  0  0  0  0  0  0  0  0  0
  1  2  1  0  0  0  0 
  1  3  1  0  0  0  0 
  2  4  2  0  0  0  0 
  4  5  1  0  0  0  0 
  5  6  1  0  0  0  0 
  5  7  2  0  0  0  0 
  6  8  2  0  0  0  0 
  9  7  1  0  0  0  0 
  8 10  1  0  0  0  0 
 10  9  2  0  0  0  0 
M  END
> <Name>
CINNAMYL ALCOHOL

> <Source>
DougDB3DMolFile

> <Tox>
-1.620

> <CAS>
104-54-1

$$$$

  CDK

 16 16  0  0  0  0  0  0  0  0999 V2000
    6.0306    4.1682    3.2056 C   0  0  0  0  0  0  0  0  0  0  0  0
    5.7815    5.5730    3.7337 C   0  0  0  0  0  0  0  0  0  0  0  0
    7.1038    3.4505    4.0088 C   0  0  0  0  0  0  0  0  0  0  0  0
    4.7228    6.2631    2.9360 C   0  0  0  0  0  0  0  0  0  0  0  0
    7.1477    1.9665    3.6710 C   0  0  0  0  0  0  0  0  0  0  0  0
    3.4152    6.3361    3.4173 C   0  0  0  0  0  0  0  0  0  0  0  0
    5.0374    6.8403    1.7042 C   0  0  0  0  0  0  0  0  0  0  0  0
    5.8824    1.2608    4.1351 C   0  0  0  0  0  0  0  0  0  0  0  0
    2.4344    6.9834    2.6747 C   0  0  0  0  0  0  0  0  0  0  0  0
    4.0530    7.4852    0.9650 C   0  0  0  0  0  0  0  0  0  0  0  0
    5.7745    1.2331    5.6534 C   0  0  0  0  0  0  0  0  0  0  0  0
    2.7510    7.5576    1.4483 C   0  0  0  0  0  0  0  0  0  0  0  0
    4.3533    0.9509    6.1143 C   0  0  0  0  0  0  0  0  0  0  0  0
    3.4133    2.0868    5.7389 C   0  0  0  0  0  0  0  0  0  0  0  0
    1.9661    1.7527    6.0563 C   0  0  0  0  0  0  0  0  0  0  0  0
    1.0456    2.8979    5.6983 C   0  0  0  0  0  0  0  0  0  0  0  0
  1  2  1  0  0  0  0 
  1  3  1  0  0  0  0 
  2  4  1  0  0  0  0 
  3  5  1  0  0  0  0 
  4  6  2  0  0  0  0 
  7  4  1  0  0  0  0 
  5  8  1  0  0  0  0 
  6  9  1  0  0  0  0 
 10  7  2  0  0  0  0 
  8 11  1  0  0  0  0 
  9 12  2  0  0  0  0 
 12 10  1  0  0  0  0 
 11 13  1  0  0  0  0 
 13 14  1  0  0  0  0 
 14 15  1  0  0  0  0 
 15 16  1  0  0  0  0 
M  END
> <Name>
1-PHENYLDECANE

> <Source>
NIST3DMolFile

> <Tox>
-2.893

> <CAS>
104-72-3

$$$$

  CDK

  9  8  0  0  0  0  0  0  0  0999 V2000
    5.7598   -0.0000    0.0000 N   0  0  0  0  0  0  0  0  0  0  0  0
    4.6120   -0.6638    0.0000 C   0  0  0  0  0  0  0  0  0  0  0  0
    4.6120   -1.9983    0.0000 C   0  0  0  0  0  0  0  0  0  0  0  0
    3.4573   -2.6621    0.0000 C   0  0  0  0  0  0  0  0  0  0  0  0
    5.7598   -2.6621    0.0000 C   0  0  0  0  0  0  0  0  0  0  0  0
    2.3025   -1.9983    0.0000 C   0  0  0  0  0  0  0  0  0  0  0  0
    6.9145   -1.9983    0.0000 C   0  0  0  0  0  0  0  0  0  0  0  0
    1.1547   -2.6621    0.0000 C   0  0  0  0  0  0  0  0  0  0  0  0
    0.0000   -1.9983    0.0000 C   0  0  0  0  0  0  0  0  0  0  0  0
  1  2  1  0  0  0  0 
  2  3  1  0  0  0  0 
  3  4  1  0  0  0  0 
  3  5  1  0  0  0  0 
  4  6  1  0  0  0  0 
  5  7  1  0  0  0  0 
  6  8  1  0  0  0  0 
  8  9  1  0  0  0  0 
M  END
> <Name>
2-ETHYLHEXYLAMINE

> <Source>
DSSTox2DMolFile

> <Tox>
0.146

> <CAS>
104-75-6

$$$$

  CDK

  9  8  0  0  0  0  0  0  0  0999 V2000
    0.0000   -4.6059    0.0000 C   0  0  0  0  0  0  0  0  0  0  0  0
    0.6657   -3.4484    0.0000 C   0  0  0  0  0  0  0  0  0  0  0  0
    1.9971   -3.4484    0.0000 C   0  0  0  0  0  0  0  0  0  0  0  0
    2.6628   -2.3089    0.0000 C   0  0  0  0  0  0  0  0  0  0  0  0
    4.0001   -2.3089    0.0000 C   0  0  0  0  0  0  0  0  0  0  0  0
    4.6658   -3.4484    0.0000 C   0  0  0  0  0  0  0  0  0  0  0  0
    4.6658   -1.1515    0.0000 C   0  0  0  0  0  0  0  0  0  0  0  0
    5.9972   -3.4484    0.0000 O   0  0  0  0  0  0  0  0  0  0  0  0
    4.0001   -0.0000    0.0000 C   0  0  0  0  0  0  0  0  0  0  0  0
  1  2  1  0  0  0  0 
  2  3  1  0  0  0  0 
  3  4  1  0  0  0  0 
  4  5  1  0  0  0  0 
  5  6  1  0  0  0  0 
  5  7  1  0  0  0  0 
  6  8  1  0  0  0  0 
  7  9  1  0  0  0  0 
M  END
> <Name>
2-ETHYL-1-HEXANOL

> <Source>
DSSTox2DMolFile

> <Tox>
-0.866

> <CAS>
104-76-7

$$$$

  CDK

  9  9  0  0  0  0  0  0  0  0999 V2000
    2.5401    0.0000    0.0000 C   0  0  0  0  0  0  0  0  0  0  0  0
    1.5240    0.0000    0.0000 C   0  0  0  0  0  0  0  0  0  0  0  0
    2.9973    0.9144    0.0000 C   0  0  0  0  0  0  0  0  0  0  0  0
    1.0160    0.8636    0.0000 C   0  0  0  0  0  0  0  0  0  0  0  0
    2.4892    1.7272    0.0000 C   0  0  0  0  0  0  0  0  0  0  0  0
    4.0133    0.9144    0.0000 C   0  0  0  0  0  0  0  0  0  0  0  0
    1.5240    1.7272    0.0000 C   0  0  0  0  0  0  0  0  0  0  0  0
    0.0000    0.8636    0.0000 C   0  0  0  0  0  0  0  0  0  0  0  0
    4.5213    0.0508    0.0000 Cl  0  0  0  0  0  0  0  0  0  0  0  0
  1  2  2  0  0  0  0 
  3  1  1  0  0  0  0 
  2  4  1  0  0  0  0 
  5  3  2  0  0  0  0 
  3  6  1  0  0  0  0 
  4  7  2  0  0  0  0 
  4  8  1  0  0  0  0 
  7  5  1  0  0  0  0 
  6  9  1  0  0  0  0 
M  END
> <Name>
P-(CHLOROMETHYL)TOLUENE

> <Source>
NIST2DMolFile

> <Tox>
-0.527

> <CAS>
104-82-5

$$$$

  CDK

  9  9  0  0  0  0  0  0  0  0999 V2000
    0.0000   -1.1509    0.0000 N   0  0  0  0  0  0  0  0  0  0  0  0
    1.3305   -1.1509    0.0000 C   0  0  0  0  0  0  0  0  0  0  0  0
    2.6611   -1.1509    0.0000 C   0  0  0  0  0  0  0  0  0  0  0  0
    3.3263   -0.0000    0.0000 C   0  0  0  0  0  0  0  0  0  0  0  0
    3.3263   -2.3018    0.0000 C   0  0  0  0  0  0  0  0  0  0  0  0
    4.6568   -0.0000    0.0000 C   0  0  0  0  0  0  0  0  0  0  0  0
    4.6568   -2.3018    0.0000 C   0  0  0  0  0  0  0  0  0  0  0  0
    5.3221   -1.1509    0.0000 C   0  0  0  0  0  0  0  0  0  0  0  0
    6.6526   -1.1509    0.0000 C   0  0  0  0  0  0  0  0  0  0  0  0
  1  2  3  0  0  0  0 
  2  3  1  0  0  0  0 
  3  4  2  0  0  0  0 
  3  5  1  0  0  0  0 
  4  6  1  0  0  0  0 
  7  5  2  0  0  0  0 
  6  8  2  0  0  0  0 
  8  7  1  0  0  0  0 
  8  9  1  0  0  0  0 
M  END
> <Name>
4-METHYLBENZONITRILE

> <Source>
DSSTox2DMolFile

> <Tox>
-0.504

> <CAS>
104-85-8

$$$$

  CDK

  9  9  0  0  0  0  0  0  0  0999 V2000
   -0.9576   -0.2193   -0.0003 C   0  0  0  0  0  0  0  0  0  0  0  0
   -0.1262   -1.3425   -0.0013 C   0  0  0  0  0  0  0  0  0  0  0  0
   -0.3913    1.0559   -0.0027 C   0  0  0  0  0  0  0  0  0  0  0  0
   -2.4274   -0.4169    0.0021 C   0  0  0  0  0  0  0  0  0  0  0  0
    1.2532   -1.1915   -0.0039 C   0  0  0  0  0  0  0  0  0  0  0  0
    0.9904    1.2063   -0.0053 C   0  0  0  0  0  0  0  0  0  0  0  0
   -3.2294    0.4900    0.0035 O   0  0  0  0  0  0  0  0  0  0  0  0
    1.8213    0.0852   -0.0045 C   0  0  0  0  0  0  0  0  0  0  0  0
    3.2978    0.2439    0.0077 C   0  0  0  0  0  0  0  0  0  0  0  0
  1  2  1  0  0  0  0 
  1  3  2  0  0  0  0 
  1  4  1  0  0  0  0 
  2  5  2  0  0  0  0 
  3  6  1  0  0  0  0 
  4  7  2  0  0  0  0 
  8  5  1  0  0  0  0 
  8  6  2  0  0  0  0 
  8  9  1  0  0  0  0 
M  END
> <Name>
P-TOLUALDEHYDE

> <Source>
DougDB3DMolFile

> <Tox>
-0.602

> <CAS>
104-87-0

$$$$

  CDK

  9  9  0  0  0  0  0  0  0  0999 V2000
    3.9890   -0.0000    0.0000 N   0  0  0  0  0  0  0  0  0  0  0  0
    4.6529   -1.1542    0.0000 C   0  0  0  0  0  0  0  0  0  0  0  0
    2.6554   -0.0000    0.0000 C   0  0  0  0  0  0  0  0  0  0  0  0
    5.9806   -1.1542    0.0000 C   0  0  0  0  0  0  0  0  0  0  0  0
    3.9890   -2.3025    0.0000 C   0  0  0  0  0  0  0  0  0  0  0  0
    1.9915   -1.1542    0.0000 C   0  0  0  0  0  0  0  0  0  0  0  0
    2.6554   -2.3025    0.0000 C   0  0  0  0  0  0  0  0  0  0  0  0
    0.6638   -1.1542    0.0000 C   0  0  0  0  0  0  0  0  0  0  0  0
    0.0000   -0.0000    0.0000 C   0  0  0  0  0  0  0  0  0  0  0  0
  1  2  2  0  0  0  0 
  1  3  1  0  0  0  0 
  2  4  1  0  0  0  0 
  2  5  1  0  0  0  0 
  6  3  2  0  0  0  0 
  5  7  2  0  0  0  0 
  7  6  1  0  0  0  0 
  6  8  1  0  0  0  0 
  8  9  1  0  0  0  0 
M  END
> <Name>
5-ETHYL-2-METHYLPYRIDINE

> <Source>
DSSTox2DMolFile

> <Tox>
0.155

> <CAS>
104-90-5

$$$$

  CDK

  9  9  0  0  0  0  0  0  0  0999 V2000
    0.0000    1.5899    0.0000 C   0  0  0  0  0  0  0  0  0  0  0  0
    0.6956    0.8446    0.0000 O   0  0  0  0  0  0  0  0  0  0  0  0
    1.6892    0.8446    0.0000 C   0  0  0  0  0  0  0  0  0  0  0  0
    2.1861    0.0000    0.0000 C   0  0  0  0  0  0  0  0  0  0  0  0
    2.1861    1.7389    0.0000 C   0  0  0  0  0  0  0  0  0  0  0  0
    3.1797    0.0000    0.0000 C   0  0  0  0  0  0  0  0  0  0  0  0
    3.1797    1.7389    0.0000 C   0  0  0  0  0  0  0  0  0  0  0  0
    3.6766    0.8446    0.0000 C   0  0  0  0  0  0  0  0  0  0  0  0
    4.6702    0.8446    0.0000 Br  0  0  0  0  0  0  0  0  0  0  0  0
  1  2  1  0  0  0  0 
  2  3  1  0  0  0  0 
  3  4  2  0  0  0  0 
  5  3  1  0  0  0  0 
  4  6  1  0  0  0  0 
  7  5  2  0  0  0  0 
  6  8  2  0  0  0  0 
  8  7  1  0  0  0  0 
  9  8  1  0  0  0  0 
M  END
> <Name>
4-BROMOANISOLE

> <Source>
NIST2DMolFile

> <Tox>
-0.693

> <CAS>
104-92-7

$$$$

  CDK

 10 10  0  0  0  0  0  0  0  0999 V2000
    4.6448   -1.1562    0.0000 C   0  0  0  0  0  0  0  0  0  0  0  0
    3.9869   -2.3058    0.0000 C   0  0  0  0  0  0  0  0  0  0  0  0
    3.9869   -0.0000    0.0000 C   0  0  0  0  0  0  0  0  0  0  0  0
    5.9737   -1.1562    0.0000 C   0  0  0  0  0  0  0  0  0  0  0  0
    2.6579   -2.3058    0.0000 C   0  0  0  0  0  0  0  0  0  0  0  0
    2.6579   -0.0000    0.0000 C   0  0  0  0  0  0  0  0  0  0  0  0
    6.6449   -0.0000    0.0000 C   0  0  0  0  0  0  0  0  0  0  0  0
    1.9868   -1.1562    0.0000 C   0  0  0  0  0  0  0  0  0  0  0  0
    0.6578   -1.1562    0.0000 C   0  0  0  0  0  0  0  0  0  0  0  0
    0.0000   -2.3058    0.0000 C   0  0  0  0  0  0  0  0  0  0  0  0
  1  2  2  0  0  0  0 
  1  3  1  0  0  0  0 
  1  4  1  0  0  0  0 
  2  5  1  0  0  0  0 
  6  3  2  0  0  0  0 
  4  7  1  0  0  0  0 
  5  8  2  0  0  0  0 
  8  6  1  0  0  0  0 
  8  9  1  0  0  0  0 
  9 10  1  0  0  0  0 
M  END
> <Name>
P-DIETHYLBENZENE

> <Source>
DSSTox2DMolFile

> <Tox>
0.025

> <CAS>
105-05-5

$$$$

  CDK

  7  6  0  0  0  0  0  0  0  0999 V2000
    1.1569   -0.0000    0.0000 C   0  0  0  0  0  0  0  0  0  0  0  0
    2.3138   -0.6536    0.0000 C   0  0  0  0  0  0  0  0  0  0  0  0
    0.0000   -0.6536    0.0000 O   0  0  0  0  0  0  0  0  0  0  0  0
    3.4706   -0.0000    0.0000 C   0  0  0  0  0  0  0  0  0  0  0  0
    2.3138   -1.9898    0.0000 C   0  0  0  0  0  0  0  0  0  0  0  0
    4.6275   -0.6536    0.0000 C   0  0  0  0  0  0  0  0  0  0  0  0
    5.7844   -0.0000    0.0000 C   0  0  0  0  0  0  0  0  0  0  0  0
  1  2  1  0  0  0  0 
  1  3  1  0  0  0  0 
  2  4  1  0  0  0  0 
  2  5  1  0  0  0  0 
  4  6  1  0  0  0  0 
  6  7  1  0  0  0  0 
M  END
> <Name>
2-METHYL-1-PENTANOL

> <Source>
DSSTox2DMolFile

> <Tox>
0.283

> <CAS>
105-30-6

$$$$

  CDK

  7  6  0  0  0  0  0  0  0  0999 V2000
    3.4607   -1.3266    0.0000 C   0  0  0  0  0  0  0  0  0  0  0  0
    3.4607   -0.0000    0.0000 O   0  0  0  0  0  0  0  0  0  0  0  0
    4.6142   -1.9841    0.0000 O   0  0  0  0  0  0  0  0  0  0  0  0
    2.3071   -1.9841    0.0000 C   0  0  0  0  0  0  0  0  0  0  0  0
    5.7678   -1.3266    0.0000 C   0  0  0  0  0  0  0  0  0  0  0  0
    1.1536   -1.3093    0.0000 C   0  0  0  0  0  0  0  0  0  0  0  0
    0.0000   -0.6402    0.0000 N   0  0  0  0  0  0  0  0  0  0  0  0
  1  2  2  0  0  0  0 
  1  3  1  0  0  0  0 
  1  4  1  0  0  0  0 
  3  5  1  0  0  0  0 
  4  6  1  0  0  0  0 
  6  7  3  0  0  0  0 
M  END
> <Name>
METHYL CYANOACETATE

> <Source>
DSSTox2DMolFile

> <Tox>
-0.860

> <CAS>
105-34-0

$$$$

  CDK

  7  6  0  0  0  0  0  0  0  0999 V2000
   -0.5202    0.1666    0.0155 C   0  0  0  0  0  0  0  0  0  0  0  0
   -1.6331   -0.8569    0.0343 C   0  0  0  0  0  0  0  0  0  0  0  0
   -0.5983    1.3790    0.0121 O   0  0  0  0  0  0  0  0  0  0  0  0
    0.7138   -0.4196    0.0046 O   0  0  0  0  0  0  0  0  0  0  0  0
   -3.0058   -0.2293   -0.0408 C   0  0  0  0  0  0  0  0  0  0  0  0
    1.8691    0.4207   -0.0076 C   0  0  0  0  0  0  0  0  0  0  0  0
    3.0724   -0.5024   -0.0150 C   0  0  0  0  0  0  0  0  0  0  0  0
  1  2  1  0  0  0  0 
  1  3  2  0  0  0  0 
  1  4  1  0  0  0  0 
  2  5  1  0  0  0  0 
  4  6  1  0  0  0  0 
  6  7  1  0  0  0  0 
M  END
> <Name>
ETHYL PROPIONATE

> <Source>
DougDB3DMolFile

> <Tox>
1.555

> <CAS>
105-37-3

$$$$

  CDK

  8  7  0  0  0  0  0  0  0  0999 V2000
    2.2736   -1.3229    0.0000 C   0  0  0  0  0  0  0  0  0  0  0  0
    3.4362   -2.0044    0.0000 C   0  0  0  0  0  0  0  0  0  0  0  0
    1.1454   -2.0044    0.0000 O   0  0  0  0  0  0  0  0  0  0  0  0
    2.2736   -0.0000    0.0000 O   0  0  0  0  0  0  0  0  0  0  0  0
    4.5644   -1.3229    0.0000 C   0  0  0  0  0  0  0  0  0  0  0  0
    0.0000   -1.3229    0.0000 C   0  0  0  0  0  0  0  0  0  0  0  0
    5.7270   -2.0044    0.0000 C   0  0  0  0  0  0  0  0  0  0  0  0
    4.5644   -0.0000    0.0000 O   0  0  0  0  0  0  0  0  0  0  0  0
  1  2  1  0  0  0  0 
  1  3  1  0  0  0  0 
  1  4  2  0  0  0  0 
  2  5  1  0  0  0  0 
  3  6  1  0  0  0  0 
  5  7  1  0  0  0  0 
  5  8  2  0  0  0  0 
M  END
> <Name>
METHYL ACETOACETATE

> <Source>
DSSTox2DMolFile

> <Tox>
-0.050

> <CAS>
105-45-3

$$$$

  CDK

  8  7  0  0  0  0  0  0  0  0999 V2000
    0.0000    0.5096    0.0000 Cl  0  0  0  0  0  0  0  0  0  0  0  0
    0.8663    0.0000    0.0000 C   0  0  0  0  0  0  0  0  0  0  0  0
    1.7326    0.5096    0.0000 C   0  0  0  0  0  0  0  0  0  0  0  0
    2.5989    0.0000    0.0000 O   0  0  0  0  0  0  0  0  0  0  0  0
    1.7326    1.4269    0.0000 O   0  0  0  0  0  0  0  0  0  0  0  0
    3.4653    0.5096    0.0000 C   0  0  0  0  0  0  0  0  0  0  0  0
    4.4335    0.0000    0.0000 C   0  0  0  0  0  0  0  0  0  0  0  0
    3.4653    1.4778    0.0000 C   0  0  0  0  0  0  0  0  0  0  0  0
  1  2  1  0  0  0  0 
  2  3  1  0  0  0  0 
  3  4  1  0  0  0  0 
  3  5  2  0  0  0  0 
  4  6  1  0  0  0  0 
  6  7  1  0  0  0  0 
  6  8  1  0  0  0  0 
M  END
> <Name>
ISOPROPYL CHLOROACETATE

> <Source>
NIST2DMolFile

> <Tox>
0.613

> <CAS>
105-48-6

$$$$

  CDK

 11 10  0  0  0  0  0  0  0  0999 V2000
    1.9932   -0.0000    0.0000 C   0  0  0  0  0  0  0  0  0  0  0  0
    0.6625   -0.0000    0.0000 C   0  0  0  0  0  0  0  0  0  0  0  0
    0.0000   -1.1521    0.0000 O   0  0  0  0  0  0  0  0  0  0  0  0
    0.6625   -2.3043    0.0000 C   0  0  0  0  0  0  0  0  0  0  0  0
    1.9932   -2.3043    0.0000 O   0  0  0  0  0  0  0  0  0  0  0  0
    0.0000   -3.4564    0.0000 C   0  0  0  0  0  0  0  0  0  0  0  0
    0.6625   -4.6086    0.0000 C   0  0  0  0  0  0  0  0  0  0  0  0
    0.0000   -5.7607    0.0000 O   0  0  0  0  0  0  0  0  0  0  0  0
    1.9932   -4.6086    0.0000 O   0  0  0  0  0  0  0  0  0  0  0  0
    2.6615   -5.7607    0.0000 C   0  0  0  0  0  0  0  0  0  0  0  0
    3.9922   -5.7607    0.0000 C   0  0  0  0  0  0  0  0  0  0  0  0
  1  2  1  0  0  0  0 
  2  3  1  0  0  0  0 
  3  4  1  0  0  0  0 
  4  5  2  0  0  0  0 
  4  6  1  0  0  0  0 
  6  7  1  0  0  0  0 
  7  8  2  0  0  0  0 
  7  9  1  0  0  0  0 
  9 10  1  0  0  0  0 
 10 11  1  0  0  0  0 
M  END
> <Name>
DIETHYL MALONATE

> <Source>
DSSTox2DMolFile

> <Tox>
-0.570

> <CAS>
105-53-3

$$$$

  CDK

  8  7  0  0  0  0  0  0  0  0999 V2000
    2.3109   -2.6509    0.0000 C   0  0  0  0  0  0  0  0  0  0  0  0
    2.3109   -3.9821    0.0000 O   0  0  0  0  0  0  0  0  0  0  0  0
    3.4519   -1.9939    0.0000 O   0  0  0  0  0  0  0  0  0  0  0  0
    1.1583   -1.9939    0.0000 C   0  0  0  0  0  0  0  0  0  0  0  0
    4.6045   -2.6509    0.0000 C   0  0  0  0  0  0  0  0  0  0  0  0
    1.1583   -0.6570    0.0000 C   0  0  0  0  0  0  0  0  0  0  0  0
    5.7628   -1.9766    0.0000 C   0  0  0  0  0  0  0  0  0  0  0  0
    0.0000   -0.0000    0.0000 N   0  0  0  0  0  0  0  0  0  0  0  0
  1  2  2  0  0  0  0 
  1  3  1  0  0  0  0 
  1  4  1  0  0  0  0 
  3  5  1  0  0  0  0 
  4  6  1  0  0  0  0 
  5  7  1  0  0  0  0 
  6  8  3  0  0  0  0 
M  END
> <Name>
ETHYL CYANOACETATE

> <Source>
DSSTox2DMolFile

> <Tox>
-1.411

> <CAS>
105-56-6

$$$$

  CDK

  8  7  0  0  0  0  0  0  0  0999 V2000
    3.4668   -0.7003    0.0000 C   0  0  0  0  0  0  0  0  0  0  0  0
    2.3089   -0.0000    0.0000 O   0  0  0  0  0  0  0  0  0  0  0  0
    4.5970   -0.0277    0.0000 O   0  0  0  0  0  0  0  0  0  0  0  0
    3.4668   -2.0177    0.0000 C   0  0  0  0  0  0  0  0  0  0  0  0
    1.1787   -0.6518    0.0000 C   0  0  0  0  0  0  0  0  0  0  0  0
    5.7896   -0.7003    0.0000 C   0  0  0  0  0  0  0  0  0  0  0  0
    0.0000   -0.0277    0.0000 C   0  0  0  0  0  0  0  0  0  0  0  0
    6.9337   -0.0485    0.0000 C   0  0  0  0  0  0  0  0  0  0  0  0
  1  2  1  0  0  0  0 
  1  3  1  0  0  0  0 
  1  4  1  0  0  0  0 
  2  5  1  0  0  0  0 
  3  6  1  0  0  0  0 
  5  7  1  0  0  0  0 
  6  8  1  0  0  0  0 
M  END
> <Name>
1,1-DIETHOXYETHANE

> <Source>
DSSTox2DMolFile

> <Tox>
1.441

> <CAS>
105-57-7

$$$$

  CDK

  8  7  0  0  0  0  0  0  0  0999 V2000
    3.4577   -0.0000    0.0000 O   0  0  0  0  0  0  0  0  0  0  0  0
    3.4577   -1.3312    0.0000 C   0  0  0  0  0  0  0  0  0  0  0  0
    4.6103   -1.9939    0.0000 O   0  0  0  0  0  0  0  0  0  0  0  0
    2.3051   -1.9939    0.0000 O   0  0  0  0  0  0  0  0  0  0  0  0
    5.7628   -1.3312    0.0000 C   0  0  0  0  0  0  0  0  0  0  0  0
    1.1526   -1.3312    0.0000 C   0  0  0  0  0  0  0  0  0  0  0  0
    5.7628   -0.0000    0.0000 C   0  0  0  0  0  0  0  0  0  0  0  0
    0.0000   -1.9939    0.0000 C   0  0  0  0  0  0  0  0  0  0  0  0
  1  2  2  0  0  0  0 
  2  3  1  0  0  0  0 
  2  4  1  0  0  0  0 
  3  5  1  0  0  0  0 
  4  6  1  0  0  0  0 
  5  7  1  0  0  0  0 
  6  8  1  0  0  0  0 
M  END
> <Name>
DIETHYL CARBONATE

> <Source>
DSSTox2DMolFile

> <Tox>
1.033

> <CAS>
105-58-8

$$$$

  CDK

  8  7  0  0  0  0  0  0  0  0999 V2000
    3.4577   -1.3312    0.0000 N   0  0  0  0  0  0  0  0  0  0  0  0
    3.4577   -0.0000    0.0000 C   0  0  0  0  0  0  0  0  0  0  0  0
    4.6103   -1.9939    0.0000 C   0  0  0  0  0  0  0  0  0  0  0  0
    2.3051   -1.9939    0.0000 C   0  0  0  0  0  0  0  0  0  0  0  0
    5.7628   -1.3312    0.0000 C   0  0  0  0  0  0  0  0  0  0  0  0
    1.1526   -1.3312    0.0000 C   0  0  0  0  0  0  0  0  0  0  0  0
    5.7628   -0.0000    0.0000 O   0  0  0  0  0  0  0  0  0  0  0  0
    0.0000   -1.9939    0.0000 O   0  0  0  0  0  0  0  0  0  0  0  0
  1  2  1  0  0  0  0 
  1  3  1  0  0  0  0 
  1  4  1  0  0  0  0 
  3  5  1  0  0  0  0 
  4  6  1  0  0  0  0 
  5  7  1  0  0  0  0 
  6  8  1  0  0  0  0 
M  END
> <Name>
N-METHYLDIETHANOLAMINE

> <Source>
DSSTox2DMolFile

> <Tox>
-3.699

> <CAS>
105-59-9

$$$$

  CDK

  8  8  0  0  0  0  0  0  0  0999 V2000
    0.0000   -1.4934    0.0000 O   0  0  0  0  0  0  0  0  0  0  0  0
    1.3279   -1.4934    0.0000 C   0  0  0  0  0  0  0  0  0  0  0  0
    1.9049   -0.2927    0.0000 C   0  0  0  0  0  0  0  0  0  0  0  0
    1.9049   -2.6898    0.0000 N   0  0  0  0  0  0  0  0  0  0  0  0
    3.2031   -0.0000    0.0000 C   0  0  0  0  0  0  0  0  0  0  0  0
    3.2031   -2.9868    0.0000 C   0  0  0  0  0  0  0  0  0  0  0  0
    4.2426   -0.8273    0.0000 C   0  0  0  0  0  0  0  0  0  0  0  0
    4.2426   -2.1595    0.0000 C   0  0  0  0  0  0  0  0  0  0  0  0
  1  2  2  0  0  0  0 
  2  3  1  0  0  0  0 
  2  4  1  0  0  0  0 
  3  5  1  0  0  0  0 
  6  4  1  0  0  0  0 
  5  7  1  0  0  0  0 
  8  6  1  0  0  0  0 
  7  8  1  0  0  0  0 
M  END
> <Name>
CAPROLACTAM

> <Source>
DSSTox2DMolFile

> <Tox>
-2.796

> <CAS>
105-60-2

$$$$

  CDK

  9  8  0  0  0  0  0  0  0  0999 V2000
   -0.5145    0.3443    0.0647 C   0  0  0  0  0  0  0  0  0  0  0  0
   -1.7411   -0.5358    0.1343 C   0  0  0  0  0  0  0  0  0  0  0  0
   -0.4461    1.5572    0.0400 O   0  0  0  0  0  0  0  0  0  0  0  0
    0.6392   -0.3870    0.0388 O   0  0  0  0  0  0  0  0  0  0  0  0
   -3.0247    0.2305   -0.1414 C   0  0  0  0  0  0  0  0  0  0  0  0
    1.8859    0.3077   -0.0051 C   0  0  0  0  0  0  0  0  0  0  0  0
   -4.2288   -0.6793   -0.0449 C   0  0  0  0  0  0  0  0  0  0  0  0
    2.9751   -0.7618   -0.0185 C   0  0  0  0  0  0  0  0  0  0  0  0
    4.3416   -0.1167   -0.0648 C   0  0  0  0  0  0  0  0  0  0  0  0
  1  2  1  0  0  0  0 
  1  3  2  0  0  0  0 
  1  4  1  0  0  0  0 
  2  5  1  0  0  0  0 
  4  6  1  0  0  0  0 
  5  7  1  0  0  0  0 
  6  8  1  0  0  0  0 
  8  9  1  0  0  0  0 
M  END
> <Name>
N-PROPYLBUTYRATE

> <Source>
DougDB3DMolFile

> <Tox>
0.775

> <CAS>
105-66-8

$$$$

  CDK

 16 15  0  0  0  0  0  0  0  0999 V2000
    7.9790   -2.3139    0.0000 C   0  0  0  0  0  0  0  0  0  0  0  0
    7.3008   -1.1570    0.0000 C   0  0  0  0  0  0  0  0  0  0  0  0
    7.3008   -3.4576    0.0000 O   0  0  0  0  0  0  0  0  0  0  0  0
    9.3089   -2.3139    0.0000 O   0  0  0  0  0  0  0  0  0  0  0  0
    5.9710   -1.1570    0.0000 C   0  0  0  0  0  0  0  0  0  0  0  0
    9.9605   -1.1570    0.0000 C   0  0  0  0  0  0  0  0  0  0  0  0
    5.3193   -2.3139    0.0000 C   0  0  0  0  0  0  0  0  0  0  0  0
   11.2903   -1.1570    0.0000 C   0  0  0  0  0  0  0  0  0  0  0  0
    5.9710   -3.4576    0.0000 O   0  0  0  0  0  0  0  0  0  0  0  0
    3.9895   -2.3139    0.0000 O   0  0  0  0  0  0  0  0  0  0  0  0
   11.9685   -0.0000    0.0000 C   0  0  0  0  0  0  0  0  0  0  0  0
    3.3379   -3.4576    0.0000 C   0  0  0  0  0  0  0  0  0  0  0  0
   13.2984   -0.0000    0.0000 C   0  0  0  0  0  0  0  0  0  0  0  0
    2.0081   -3.4576    0.0000 C   0  0  0  0  0  0  0  0  0  0  0  0
    1.3298   -4.6145    0.0000 C   0  0  0  0  0  0  0  0  0  0  0  0
    0.0000   -4.6145    0.0000 C   0  0  0  0  0  0  0  0  0  0  0  0
  1  2  1  0  0  0  0 
  1  3  2  0  0  0  0 
  1  4  1  0  0  0  0 
  5  2  2  0  0  0  0 
  4  6  1  0  0  0  0 
  7  5  1  0  0  0  0 
  6  8  1  0  0  0  0 
  7  9  2  0  0  0  0 
  7 10  1  0  0  0  0 
  8 11  1  0  0  0  0 
 10 12  1  0  0  0  0 
 11 13  1  0  0  0  0 
 12 14  1  0  0  0  0 
 14 15  1  0  0  0  0 
 15 16  1  0  0  0  0 
M  END
> <Name>
DIBUTYL MALEATE

> <Source>
DSSTox2DMolFile

> <Tox>
-3.206

> <CAS>
105-76-0

$$$$

  CDK

 14 13  0  0  0  0  0  0  0  0999 V2000
   10.3669   -0.0000    0.0000 O   0  0  0  0  0  0  0  0  0  0  0  0
   10.3669   -1.3247    0.0000 C   0  0  0  0  0  0  0  0  0  0  0  0
    9.2150   -1.9927    0.0000 O   0  0  0  0  0  0  0  0  0  0  0  0
   11.5188   -1.9927    0.0000 C   0  0  0  0  0  0  0  0  0  0  0  0
    8.0631   -1.3247    0.0000 C   0  0  0  0  0  0  0  0  0  0  0  0
    6.9113   -1.9927    0.0000 C   0  0  0  0  0  0  0  0  0  0  0  0
    5.7594   -1.3247    0.0000 C   0  0  0  0  0  0  0  0  0  0  0  0
    4.6075   -1.9927    0.0000 C   0  0  0  0  0  0  0  0  0  0  0  0
    5.7594   -0.0000    0.0000 C   0  0  0  0  0  0  0  0  0  0  0  0
    3.4556   -1.3247    0.0000 C   0  0  0  0  0  0  0  0  0  0  0  0
    2.3038   -1.9927    0.0000 C   0  0  0  0  0  0  0  0  0  0  0  0
    1.1519   -1.3247    0.0000 C   0  0  0  0  0  0  0  0  0  0  0  0
    0.0000   -1.9927    0.0000 C   0  0  0  0  0  0  0  0  0  0  0  0
    1.1519   -0.0000    0.0000 C   0  0  0  0  0  0  0  0  0  0  0  0
  1  2  2  0  0  0  0 
  2  3  1  0  0  0  0 
  2  4  1  0  0  0  0 
  3  5  1  0  0  0  0 
  5  6  1  0  0  0  0 
  6  7  2  0  0  0  0 
  7  8  1  0  0  0  0 
  7  9  1  0  0  0  0 
  8 10  1  0  0  0  0 
 10 11  1  0  0  0  0 
 11 12  2  0  0  0  0 
 12 13  1  0  0  0  0 
 12 14  1  0  0  0  0 
M  END
> <Name>
GERANIOL ACETATE

> <Source>
DSSTox2DMolFile

> <Tox>
-1.481

> <CAS>
105-87-3

$$$$

  CDK

 11 10  0  0  0  0  0  0  0  0999 V2000
    1.1516   -1.3280    0.0000 C   0  0  0  0  0  0  0  0  0  0  0  0
    2.3310   -1.9781    0.0000 C   0  0  0  0  0  0  0  0  0  0  0  0
    0.0000   -1.9781    0.0000 O   0  0  0  0  0  0  0  0  0  0  0  0
    3.4640   -1.3280    0.0000 C   0  0  0  0  0  0  0  0  0  0  0  0
    4.6155   -1.9781    0.0000 C   0  0  0  0  0  0  0  0  0  0  0  0
    3.4640   -0.0000    0.0000 C   0  0  0  0  0  0  0  0  0  0  0  0
    5.7949   -1.3280    0.0000 C   0  0  0  0  0  0  0  0  0  0  0  0
    6.9558   -1.9781    0.0000 C   0  0  0  0  0  0  0  0  0  0  0  0
    8.1074   -1.3280    0.0000 C   0  0  0  0  0  0  0  0  0  0  0  0
    9.2868   -1.9781    0.0000 C   0  0  0  0  0  0  0  0  0  0  0  0
    8.1074   -0.0000    0.0000 C   0  0  0  0  0  0  0  0  0  0  0  0
  1  2  1  0  0  0  0 
  1  3  1  0  0  0  0 
  2  4  1  0  0  0  0 
  4  5  1  0  0  0  0 
  4  6  1  0  0  0  0 
  5  7  1  0  0  0  0 
  7  8  1  0  0  0  0 
  8  9  2  0  0  0  0 
  9 10  1  0  0  0  0 
  9 11  1  0  0  0  0 
M  END
> <Name>
3,7-DIMETHYL-6-OCTEN-1-OL

> <Source>
DSSTox2DMolFile

> <Tox>
-1.356

> <CAS>
106-22-9

$$$$

  CDK

 11 10  0  0  0  0  0  0  0  0999 V2000
    1.1516   -1.3280    0.0000 C   0  0  0  0  0  0  0  0  0  0  0  0
    2.3310   -1.9781    0.0000 C   0  0  0  0  0  0  0  0  0  0  0  0
    0.0000   -1.9781    0.0000 O   0  0  0  0  0  0  0  0  0  0  0  0
    3.4640   -1.3280    0.0000 C   0  0  0  0  0  0  0  0  0  0  0  0
    4.6155   -1.9781    0.0000 C   0  0  0  0  0  0  0  0  0  0  0  0
    3.4640   -0.0000    0.0000 C   0  0  0  0  0  0  0  0  0  0  0  0
    5.7949   -1.3280    0.0000 C   0  0  0  0  0  0  0  0  0  0  0  0
    6.9558   -1.9781    0.0000 C   0  0  0  0  0  0  0  0  0  0  0  0
    8.1074   -1.3280    0.0000 C   0  0  0  0  0  0  0  0  0  0  0  0
    9.2868   -1.9781    0.0000 C   0  0  0  0  0  0  0  0  0  0  0  0
    8.1074   -0.0000    0.0000 C   0  0  0  0  0  0  0  0  0  0  0  0
  1  2  1  0  0  0  0 
  1  3  1  0  0  0  0 
  2  4  2  0  0  0  0 
  4  5  1  0  0  0  0 
  4  6  1  0  0  0  0 
  5  7  1  0  0  0  0 
  7  8  1  0  0  0  0 
  8  9  2  0  0  0  0 
  9 10  1  0  0  0  0 
  9 11  1  0  0  0  0 
M  END
> <Name>
GERANIOL

> <Source>
DSSTox2DMolFile

> <Tox>
-1.523

> <CAS>
106-24-1

$$$$

  CDK

 11 10  0  0  0  0  0  0  0  0999 V2000
    2.6651   -4.6056    0.0000 C   0  0  0  0  0  0  0  0  0  0  0  0
    4.0007   -4.6056    0.0000 C   0  0  0  0  0  0  0  0  0  0  0  0
    1.9884   -5.7615    0.0000 O   0  0  0  0  0  0  0  0  0  0  0  0
    4.6535   -3.4497    0.0000 C   0  0  0  0  0  0  0  0  0  0  0  0
    4.0007   -2.2938    0.0000 C   0  0  0  0  0  0  0  0  0  0  0  0
    5.9891   -3.4497    0.0000 C   0  0  0  0  0  0  0  0  0  0  0  0
    2.6651   -2.2938    0.0000 C   0  0  0  0  0  0  0  0  0  0  0  0
    1.9884   -1.1559    0.0000 C   0  0  0  0  0  0  0  0  0  0  0  0
    0.6588   -1.1559    0.0000 C   0  0  0  0  0  0  0  0  0  0  0  0
    0.0000   -0.0000    0.0000 C   0  0  0  0  0  0  0  0  0  0  0  0
    0.0000   -2.2938    0.0000 C   0  0  0  0  0  0  0  0  0  0  0  0
  1  2  1  0  0  0  0 
  1  3  1  0  0  0  0 
  2  4  2  0  0  0  0 
  4  5  1  0  0  0  0 
  4  6  1  0  0  0  0 
  5  7  1  0  0  0  0 
  7  8  1  0  0  0  0 
  8  9  2  0  0  0  0 
  9 10  1  0  0  0  0 
  9 11  1  0  0  0  0 
M  END
> <Name>
2,6-Octadien-1-ol, 3,7-dimethyl-, (Z)-

> <Source>
DSSTox2DMolFile

> <Tox>
-1.523

> <CAS>
106-25-2

$$$$

  CDK

 11 10  0  0  0  0  0  0  0  0999 V2000
    5.5772    2.5717    1.6775 C   0  0  0  0  0  0  0  0  0  0  0  0
    4.4979    1.6539    1.1512 C   0  0  0  0  0  0  0  0  0  0  0  0
    6.9459    2.2475    1.1069 C   0  0  0  0  0  0  0  0  0  0  0  0
    3.2518    2.0496    1.5470 O   0  0  0  0  0  0  0  0  0  0  0  0
    4.6126    0.6603    0.4612 O   0  0  0  0  0  0  0  0  0  0  0  0
    8.0051    3.1967    1.6477 C   0  0  0  0  0  0  0  0  0  0  0  0
    2.1262    1.2699    1.1397 C   0  0  0  0  0  0  0  0  0  0  0  0
    9.3958    2.7926    1.1830 C   0  0  0  0  0  0  0  0  0  0  0  0
    0.9031    1.9303    1.7466 C   0  0  0  0  0  0  0  0  0  0  0  0
    9.8049    1.4452    1.7596 C   0  0  0  0  0  0  0  0  0  0  0  0
   11.1234    0.9707    1.1949 C   0  0  0  0  0  0  0  0  0  0  0  0
  1  2  1  0  0  0  0 
  1  3  1  0  0  0  0 
  2  4  1  0  0  0  0 
  2  5  2  0  0  0  0 
  3  6  1  0  0  0  0 
  4  7  1  0  0  0  0 
  6  8  1  0  0  0  0 
  7  9  1  0  0  0  0 
  8 10  1  0  0  0  0 
 10 11  1  0  0  0  0 
M  END
> <Name>
ETHYL HEPTANOATE

> <Source>
NIST3DMolFile

> <Tox>
-0.167

> <CAS>
106-30-9

$$$$

  CDK

 11 10  0  0  0  0  0  0  0  0999 V2000
    5.6995   -1.3082    0.0000 C   0  0  0  0  0  0  0  0  0  0  0  0
    6.8705   -1.9944    0.0000 C   0  0  0  0  0  0  0  0  0  0  0  0
    4.5742   -1.9944    0.0000 O   0  0  0  0  0  0  0  0  0  0  0  0
    5.6995   -0.0000    0.0000 O   0  0  0  0  0  0  0  0  0  0  0  0
    7.9958   -1.3082    0.0000 C   0  0  0  0  0  0  0  0  0  0  0  0
    3.4215   -1.3082    0.0000 C   0  0  0  0  0  0  0  0  0  0  0  0
    9.1485   -1.9944    0.0000 C   0  0  0  0  0  0  0  0  0  0  0  0
    2.2780   -1.9944    0.0000 C   0  0  0  0  0  0  0  0  0  0  0  0
    3.4215   -0.0000    0.0000 O   0  0  0  0  0  0  0  0  0  0  0  0
    1.1253   -1.3082    0.0000 C   0  0  0  0  0  0  0  0  0  0  0  0
    0.0000   -2.0218    0.0000 C   0  0  0  0  0  0  0  0  0  0  0  0
  1  2  1  0  0  0  0 
  1  3  1  0  0  0  0 
  1  4  2  0  0  0  0 
  2  5  1  0  0  0  0 
  3  6  1  0  0  0  0 
  5  7  1  0  0  0  0 
  6  8  1  0  0  0  0 
  6  9  2  0  0  0  0 
  8 10  1  0  0  0  0 
 10 11  1  0  0  0  0 
M  END
> <Name>
BUTYRIC ANHYDRIDE

> <Source>
DSSTox2DMolFile

> <Tox>
-0.548

> <CAS>
106-31-0

$$$$

  CDK

  8  7  0  0  0  0  0  0  0  0999 V2000
    1.1003    0.4156   -0.1991 C   0  0  0  0  0  0  0  0  0  0  0  0
    2.3227   -0.3908   -0.5819 C   0  0  0  0  0  0  0  0  0  0  0  0
    1.0612    1.5781    0.1532 O   0  0  0  0  0  0  0  0  0  0  0  0
   -0.0572   -0.2998   -0.2813 O   0  0  0  0  0  0  0  0  0  0  0  0
    3.0409   -0.8888    0.6532 C   0  0  0  0  0  0  0  0  0  0  0  0
   -1.2836    0.3447    0.0672 C   0  0  0  0  0  0  0  0  0  0  0  0
   -2.3852   -0.6960   -0.1152 C   0  0  0  0  0  0  0  0  0  0  0  0
   -3.7308   -0.1000    0.2315 C   0  0  0  0  0  0  0  0  0  0  0  0
  1  2  1  0  0  0  0 
  1  3  2  0  0  0  0 
  1  4  1  0  0  0  0 
  2  5  1  0  0  0  0 
  4  6  1  0  0  0  0 
  6  7  1  0  0  0  0 
  7  8  1  0  0  0  0 
M  END
> <Name>
N-PROPYLPROPIONATE

> <Source>
DougDB3DMolFile

> <Tox>
1.143

> <CAS>
106-36-5

$$$$

  CDK

  8  8  0  0  0  0  0  0  0  0999 V2000
    1.1558   -5.3261    0.0000 Br  0  0  0  0  0  0  0  0  0  0  0  0
    1.1558   -3.9945    0.0000 C   0  0  0  0  0  0  0  0  0  0  0  0
    2.3115   -3.3181    0.0000 C   0  0  0  0  0  0  0  0  0  0  0  0
    0.0000   -3.3181    0.0000 C   0  0  0  0  0  0  0  0  0  0  0  0
    2.3115   -2.0079    0.0000 C   0  0  0  0  0  0  0  0  0  0  0  0
    0.0000   -2.0079    0.0000 C   0  0  0  0  0  0  0  0  0  0  0  0
    1.1558   -1.3315    0.0000 C   0  0  0  0  0  0  0  0  0  0  0  0
    1.1558   -0.0000    0.0000 Br  0  0  0  0  0  0  0  0  0  0  0  0
  1  2  1  0  0  0  0 
  3  2  2  0  0  0  0 
  2  4  1  0  0  0  0 
  5  3  1  0  0  0  0 
  6  4  2  0  0  0  0 
  5  7  2  0  0  0  0 
  7  6  1  0  0  0  0 
  7  8  1  0  0  0  0 
M  END
> <Name>
1,4-DIBROMOBENZENE

> <Source>
DSSTox2DMolFile

> <Tox>
-1.240

> <CAS>
106-37-6

$$$$

  CDK

  8  8  0  0  0  0  0  0  0  0999 V2000
    1.3300   -1.1545    0.0000 C   0  0  0  0  0  0  0  0  0  0  0  0
    1.9950   -0.0000    0.0000 C   0  0  0  0  0  0  0  0  0  0  0  0
    1.9950   -2.3036    0.0000 C   0  0  0  0  0  0  0  0  0  0  0  0
    0.0000   -1.1545    0.0000 C   0  0  0  0  0  0  0  0  0  0  0  0
    3.3250   -0.0000    0.0000 C   0  0  0  0  0  0  0  0  0  0  0  0
    3.3250   -2.3036    0.0000 C   0  0  0  0  0  0  0  0  0  0  0  0
    3.9900   -1.1545    0.0000 C   0  0  0  0  0  0  0  0  0  0  0  0
    5.3201   -1.1545    0.0000 Br  0  0  0  0  0  0  0  0  0  0  0  0
  1  2  2  0  0  0  0 
  1  3  1  0  0  0  0 
  1  4  1  0  0  0  0 
  2  5  1  0  0  0  0 
  6  3  2  0  0  0  0 
  5  7  2  0  0  0  0 
  7  6  1  0  0  0  0 
  7  8  1  0  0  0  0 
M  END
> <Name>
P-BROMOTOLUENE

> <Source>
DSSTox2DMolFile

> <Tox>
0.061

> <CAS>
106-38-7

$$$$

  CDK

  8  8  0  0  0  0  0  0  0  0999 V2000
    3.9843    0.8467    0.0000 Br  0  0  0  0  0  0  0  0  0  0  0  0
    2.9883    0.8467    0.0000 C   0  0  0  0  0  0  0  0  0  0  0  0
    2.4902    0.0000    0.0000 C   0  0  0  0  0  0  0  0  0  0  0  0
    2.4902    1.7432    0.0000 C   0  0  0  0  0  0  0  0  0  0  0  0
    1.4941    0.0000    0.0000 C   0  0  0  0  0  0  0  0  0  0  0  0
    1.4941    1.7432    0.0000 C   0  0  0  0  0  0  0  0  0  0  0  0
    0.9961    0.8467    0.0000 C   0  0  0  0  0  0  0  0  0  0  0  0
    0.0000    0.8467    0.0000 O   0  0  0  0  0  0  0  0  0  0  0  0
  1  2  1  0  0  0  0 
  3  2  2  0  0  0  0 
  2  4  1  0  0  0  0 
  5  3  1  0  0  0  0 
  4  6  2  0  0  0  0 
  7  5  2  0  0  0  0 
  6  7  1  0  0  0  0 
  8  7  1  0  0  0  0 
M  END
> <Name>
P-BROMOPHENOL

> <Source>
NIST2DMolFile

> <Tox>
-1.932

> <CAS>
106-41-2

$$$$

  CDK

  8  8  0  0  0  0  0  0  0  0999 V2000
    0.0000   -1.1545    0.0000 C   0  0  0  0  0  0  0  0  0  0  0  0
    1.3300   -1.1545    0.0000 C   0  0  0  0  0  0  0  0  0  0  0  0
    1.9950   -0.0000    0.0000 C   0  0  0  0  0  0  0  0  0  0  0  0
    1.9950   -2.3036    0.0000 C   0  0  0  0  0  0  0  0  0  0  0  0
    3.3250   -0.0000    0.0000 C   0  0  0  0  0  0  0  0  0  0  0  0
    3.3250   -2.3036    0.0000 C   0  0  0  0  0  0  0  0  0  0  0  0
    3.9900   -1.1545    0.0000 C   0  0  0  0  0  0  0  0  0  0  0  0
    5.3201   -1.1545    0.0000 C   0  0  0  0  0  0  0  0  0  0  0  0
  1  2  1  0  0  0  0 
  2  3  2  0  0  0  0 
  2  4  1  0  0  0  0 
  3  5  1  0  0  0  0 
  6  4  2  0  0  0  0 
  5  7  2  0  0  0  0 
  7  6  1  0  0  0  0 
  7  8  1  0  0  0  0 
M  END
> <Name>
P-XYLENE

> <Source>
DSSTox2DMolFile

> <Tox>
0.946

> <CAS>
106-42-3

$$$$

  CDK

  8  8  0  0  0  0  0  0  0  0999 V2000
    0.0000   -1.1545    0.0000 C   0  0  0  0  0  0  0  0  0  0  0  0
    1.3300   -1.1545    0.0000 C   0  0  0  0  0  0  0  0  0  0  0  0
    1.9950   -0.0000    0.0000 C   0  0  0  0  0  0  0  0  0  0  0  0
    1.9950   -2.3036    0.0000 C   0  0  0  0  0  0  0  0  0  0  0  0
    3.3250   -0.0000    0.0000 C   0  0  0  0  0  0  0  0  0  0  0  0
    3.3250   -2.3036    0.0000 C   0  0  0  0  0  0  0  0  0  0  0  0
    3.9900   -1.1545    0.0000 C   0  0  0  0  0  0  0  0  0  0  0  0
    5.3201   -1.1545    0.0000 Cl  0  0  0  0  0  0  0  0  0  0  0  0
  1  2  1  0  0  0  0 
  2  3  2  0  0  0  0 
  2  4  1  0  0  0  0 
  3  5  1  0  0  0  0 
  6  4  2  0  0  0  0 
  5  7  2  0  0  0  0 
  7  6  1  0  0  0  0 
  7  8  1  0  0  0  0 
M  END
> <Name>
P-CHLOROTOLUENE

> <Source>
DSSTox2DMolFile

> <Tox>
0.430

> <CAS>
106-43-4

$$$$

  CDK

  8  8  0  0  0  0  0  0  0  0999 V2000
    0.0000   -1.1545    0.0000 O   0  0  0  0  0  0  0  0  0  0  0  0
    1.3300   -1.1545    0.0000 C   0  0  0  0  0  0  0  0  0  0  0  0
    1.9950   -0.0000    0.0000 C   0  0  0  0  0  0  0  0  0  0  0  0
    1.9950   -2.3036    0.0000 C   0  0  0  0  0  0  0  0  0  0  0  0
    3.3250   -0.0000    0.0000 C   0  0  0  0  0  0  0  0  0  0  0  0
    3.3250   -2.3036    0.0000 C   0  0  0  0  0  0  0  0  0  0  0  0
    3.9900   -1.1545    0.0000 C   0  0  0  0  0  0  0  0  0  0  0  0
    5.3201   -1.1545    0.0000 C   0  0  0  0  0  0  0  0  0  0  0  0
  1  2  1  0  0  0  0 
  2  3  2  0  0  0  0 
  2  4  1  0  0  0  0 
  3  5  1  0  0  0  0 
  6  4  2  0  0  0  0 
  5  7  2  0  0  0  0 
  7  6  1  0  0  0  0 
  7  8  1  0  0  0  0 
M  END
> <Name>
P-CRESOL

> <Source>
DSSTox2DMolFile

> <Tox>
-0.959

> <CAS>
106-44-5

$$$$

  CDK

  8  8  0  0  0  0  0  0  0  0999 V2000
    1.4771    1.7318    0.0000 C   0  0  0  0  0  0  0  0  0  0  0  0
    0.9678    0.8659    0.0000 C   0  0  0  0  0  0  0  0  0  0  0  0
    2.4958    1.7318    0.0000 C   0  0  0  0  0  0  0  0  0  0  0  0
    1.4771    0.0509    0.0000 C   0  0  0  0  0  0  0  0  0  0  0  0
    0.0000    0.8659    0.0000 C   0  0  0  0  0  0  0  0  0  0  0  0
    3.0052    0.8659    0.0000 C   0  0  0  0  0  0  0  0  0  0  0  0
    2.4958    0.0000    0.0000 C   0  0  0  0  0  0  0  0  0  0  0  0
    4.0239    0.8659    0.0000 S   0  0  0  0  0  0  0  0  0  0  0  0
  1  2  2  0  0  0  0 
  3  1  1  0  0  0  0 
  2  4  1  0  0  0  0 
  2  5  1  0  0  0  0 
  6  3  2  0  0  0  0 
  4  7  2  0  0  0  0 
  7  6  1  0  0  0  0 
  6  8  1  0  0  0  0 
M  END
> <Name>
4-METHYLBENZENETHIOL

> <Source>
NIST2DMolFile

> <Tox>
-0.190

> <CAS>
106-45-6

$$$$

  CDK

  8  8  0  0  0  0  0  0  0  0999 V2000
    0.0000   -1.1545    0.0000 O   0  0  0  0  0  0  0  0  0  0  0  0
    1.3300   -1.1545    0.0000 C   0  0  0  0  0  0  0  0  0  0  0  0
    1.9950   -0.0000    0.0000 C   0  0  0  0  0  0  0  0  0  0  0  0
    1.9950   -2.3036    0.0000 C   0  0  0  0  0  0  0  0  0  0  0  0
    3.3250   -0.0000    0.0000 C   0  0  0  0  0  0  0  0  0  0  0  0
    3.3250   -2.3036    0.0000 C   0  0  0  0  0  0  0  0  0  0  0  0
    3.9900   -1.1545    0.0000 C   0  0  0  0  0  0  0  0  0  0  0  0
    5.3201   -1.1545    0.0000 Cl  0  0  0  0  0  0  0  0  0  0  0  0
  1  2  1  0  0  0  0 
  2  3  2  0  0  0  0 
  2  4  1  0  0  0  0 
  3  5  1  0  0  0  0 
  6  4  2  0  0  0  0 
  5  7  2  0  0  0  0 
  7  6  1  0  0  0  0 
  7  8  1  0  0  0  0 
M  END
> <Name>
4-CHLOROPHENOL

> <Source>
DSSTox2DMolFile

> <Tox>
-1.051

> <CAS>
106-48-9

$$$$

  CDK

  8  8  0  0  0  0  0  0  0  0999 V2000
    0.0000   -1.1545    0.0000 O   0  0  0  0  0  0  0  0  0  0  0  0
    1.3300   -1.1545    0.0000 C   0  0  0  0  0  0  0  0  0  0  0  0
    1.9950   -0.0000    0.0000 C   0  0  0  0  0  0  0  0  0  0  0  0
    1.9950   -2.3036    0.0000 C   0  0  0  0  0  0  0  0  0  0  0  0
    3.3250   -0.0000    0.0000 C   0  0  0  0  0  0  0  0  0  0  0  0
    3.3250   -2.3036    0.0000 C   0  0  0  0  0  0  0  0  0  0  0  0
    3.9900   -1.1545    0.0000 C   0  0  0  0  0  0  0  0  0  0  0  0
    5.3201   -1.1545    0.0000 O   0  0  0  0  0  0  0  0  0  0  0  0
  1  2  2  0  0  0  0 
  2  3  1  0  0  0  0 
  2  4  1  0  0  0  0 
  3  5  2  0  0  0  0 
  6  4  2  0  0  0  0 
  5  7  1  0  0  0  0 
  7  6  1  0  0  0  0 
  7  8  2  0  0  0  0 
M  END
> <Name>
2,5-CYCLOHEXADIENE-1,4-DIONE

> <Source>
DSSTox2DMolFile

> <Tox>
-1.046

> <CAS>
106-51-4

$$$$

  CDK

  8  8  0  0  0  0  0  0  0  0999 V2000
    0.0000    0.8559    0.0000 C   0  0  0  0  0  0  0  0  0  0  0  0
    1.0070    0.8559    0.0000 C   0  0  0  0  0  0  0  0  0  0  0  0
    1.5105    1.7119    0.0000 C   0  0  0  0  0  0  0  0  0  0  0  0
    1.5105    0.0000    0.0000 N   0  0  0  0  0  0  0  0  0  0  0  0
    2.5174    1.7119    0.0000 N   0  0  0  0  0  0  0  0  0  0  0  0
    2.5174    0.0000    0.0000 C   0  0  0  0  0  0  0  0  0  0  0  0
    3.0209    0.8559    0.0000 C   0  0  0  0  0  0  0  0  0  0  0  0
    4.0279    0.8559    0.0000 C   0  0  0  0  0  0  0  0  0  0  0  0
  1  2  1  0  0  0  0 
  3  2  1  0  0  0  0 
  2  4  1  0  0  0  0 
  5  3  1  0  0  0  0 
  4  6  1  0  0  0  0 
  7  5  1  0  0  0  0 
  6  7  1  0  0  0  0 
  7  8  1  0  0  0  0 
M  END
> <Name>
2,5-DIMETHYLPIPERAZINE

> <Source>
NIST2DMolFile

> <Tox>
0.423

> <CAS>
106-55-8

$$$$

  CDK

  9  8  0  0  0  0  0  0  0  0999 V2000
    6.9045   -1.9954    0.0000 C   0  0  0  0  0  0  0  0  0  0  0  0
    5.7514   -1.3257    0.0000 C   0  0  0  0  0  0  0  0  0  0  0  0
    4.6053   -1.9954    0.0000 C   0  0  0  0  0  0  0  0  0  0  0  0
    4.6053   -3.3210    0.0000 O   0  0  0  0  0  0  0  0  0  0  0  0
    3.4522   -1.3257    0.0000 O   0  0  0  0  0  0  0  0  0  0  0  0
    2.2992   -1.9954    0.0000 C   0  0  0  0  0  0  0  0  0  0  0  0
    1.1530   -1.3257    0.0000 C   0  0  0  0  0  0  0  0  0  0  0  0
    0.0000   -1.9954    0.0000 C   0  0  0  0  0  0  0  0  0  0  0  0
    1.1530   -0.0000    0.0000 C   0  0  0  0  0  0  0  0  0  0  0  0
  1  2  2  0  0  0  0 
  2  3  1  0  0  0  0 
  3  4  2  0  0  0  0 
  3  5  1  0  0  0  0 
  5  6  1  0  0  0  0 
  6  7  1  0  0  0  0 
  7  8  1  0  0  0  0 
  7  9  1  0  0  0  0 
M  END
> <Name>
ISOBUTYL ACRYLATE

> <Source>
DSSTox2DMolFile

> <Tox>
0.907

> <CAS>
106-63-8

$$$$

  CDK

 10  9  0  0  0  0  0  0  0  0999 V2000
    1.1523   -1.3309    0.0000 C   0  0  0  0  0  0  0  0  0  0  0  0
    1.1523   -0.0000    0.0000 O   0  0  0  0  0  0  0  0  0  0  0  0
    0.0000   -1.9935    0.0000 O   0  0  0  0  0  0  0  0  0  0  0  0
    2.3047   -1.9935    0.0000 C   0  0  0  0  0  0  0  0  0  0  0  0
    0.0000   -3.3245    0.0000 C   0  0  0  0  0  0  0  0  0  0  0  0
    3.4570   -1.3309    0.0000 C   0  0  0  0  0  0  0  0  0  0  0  0
    4.6093   -1.9935    0.0000 C   0  0  0  0  0  0  0  0  0  0  0  0
    4.6093   -3.3245    0.0000 O   0  0  0  0  0  0  0  0  0  0  0  0
    5.7617   -1.3309    0.0000 O   0  0  0  0  0  0  0  0  0  0  0  0
    5.7617   -0.0000    0.0000 C   0  0  0  0  0  0  0  0  0  0  0  0
  1  2  2  0  0  0  0 
  1  3  1  0  0  0  0 
  1  4  1  0  0  0  0 
  3  5  1  0  0  0  0 
  4  6  1  0  0  0  0 
  6  7  1  0  0  0  0 
  7  8  2  0  0  0  0 
  7  9  1  0  0  0  0 
  9 10  1  0  0  0  0 
M  END
> <Name>
DIMETHYL SUCCINATE

> <Source>
DSSTox2DMolFile

> <Tox>
-0.387

> <CAS>
106-65-0

$$$$

  CDK

  9  8  0  0  0  0  0  0  0  0999 V2000
   -1.0665    1.3852    0.4739 C   0  0  0  0  0  0  0  0  0  0  0  0
   -0.7191   -0.0306   -0.0088 C   0  0  0  0  0  0  0  0  0  0  0  0
   -2.0381    1.9254   -0.3921 O   0  0  0  0  0  0  0  0  0  0  0  0
    0.6180   -0.4639    0.5991 C   0  0  0  0  0  0  0  0  0  0  0  0
   -1.8220   -1.0239    0.3548 C   0  0  0  0  0  0  0  0  0  0  0  0
    1.7882    0.3199    0.0035 C   0  0  0  0  0  0  0  0  0  0  0  0
   -1.5744   -2.3824   -0.2636 C   0  0  0  0  0  0  0  0  0  0  0  0
    3.0652    0.0480    0.7776 C   0  0  0  0  0  0  0  0  0  0  0  0
    1.9681   -0.0215   -1.4663 C   0  0  0  0  0  0  0  0  0  0  0  0
  1  2  1  0  0  0  0 
  1  3  1  0  0  0  0 
  2  4  1  0  0  0  0 
  2  5  1  0  0  0  0 
  4  6  1  0  0  0  0 
  5  7  1  0  0  0  0 
  6  8  1  0  0  0  0 
  6  9  1  0  0  0  0 
M  END
> <Name>
4-METHYL-2-ETHYL-1-PENTANOL

> <Source>
DougDB3DMolFile

> <Tox>
-0.625

> <CAS>
106-67-2

$$$$

  CDK

  9  8  0  0  0  0  0  0  0  0999 V2000
    4.1592    1.6800    1.2871 C   0  0  0  0  0  0  0  0  0  0  0  0
    2.9940    1.4674    2.2236 C   0  0  0  0  0  0  0  0  0  0  0  0
    5.4019    2.1800    2.0045 C   0  0  0  0  0  0  0  0  0  0  0  0
    1.8749    1.0265    1.5660 O   0  0  0  0  0  0  0  0  0  0  0  0
    2.9373    1.6329    3.4254 O   0  0  0  0  0  0  0  0  0  0  0  0
    6.5400    2.4024    1.0208 C   0  0  0  0  0  0  0  0  0  0  0  0
    0.7014    0.7848    2.3110 C   0  0  0  0  0  0  0  0  0  0  0  0
    7.7902    2.8990    1.7291 C   0  0  0  0  0  0  0  0  0  0  0  0
    8.9212    3.1349    0.7538 C   0  0  0  0  0  0  0  0  0  0  0  0
  1  2  1  0  0  0  0 
  1  3  1  0  0  0  0 
  2  4  1  0  0  0  0 
  2  5  2  0  0  0  0 
  3  6  1  0  0  0  0 
  4  7  1  0  0  0  0 
  6  8  1  0  0  0  0 
  8  9  1  0  0  0  0 
M  END
> <Name>
METHYL HEXANOATE

> <Source>
NIST3DMolFile

> <Tox>
0.571

> <CAS>
106-70-7

$$$$

  CDK

 13 12  0  0  0  0  0  0  0  0999 V2000
    3.4669   -1.3290    0.0000 C   0  0  0  0  0  0  0  0  0  0  0  0
    4.6341   -1.9877    0.0000 C   0  0  0  0  0  0  0  0  0  0  0  0
    2.3113   -1.9877    0.0000 O   0  0  0  0  0  0  0  0  0  0  0  0
    5.7898   -1.3290    0.0000 O   0  0  0  0  0  0  0  0  0  0  0  0
    1.1556   -1.3290    0.0000 C   0  0  0  0  0  0  0  0  0  0  0  0
    6.9454   -1.9877    0.0000 C   0  0  0  0  0  0  0  0  0  0  0  0
    0.0000   -1.9877    0.0000 O   0  0  0  0  0  0  0  0  0  0  0  0
    1.1556   -0.0000    0.0000 Cl  0  0  0  0  0  0  0  0  0  0  0  0
    8.0895   -1.3290    0.0000 C   0  0  0  0  0  0  0  0  0  0  0  0
    9.2452   -1.9877    0.0000 O   0  0  0  0  0  0  0  0  0  0  0  0
   10.4008   -1.3290    0.0000 C   0  0  0  0  0  0  0  0  0  0  0  0
   10.4008   -0.0000    0.0000 O   0  0  0  0  0  0  0  0  0  0  0  0
   11.5565   -1.9877    0.0000 Cl  0  0  0  0  0  0  0  0  0  0  0  0
  1  2  1  0  0  0  0 
  1  3  1  0  0  0  0 
  2  4  1  0  0  0  0 
  3  5  1  0  0  0  0 
  4  6  1  0  0  0  0 
  5  7  2  0  0  0  0 
  5  8  1  0  0  0  0 
  6  9  1  0  0  0  0 
  9 10  1  0  0  0  0 
 10 11  1  0  0  0  0 
 11 12  2  0  0  0  0 
 11 13  1  0  0  0  0 
M  END
> <Name>
Diethlylene glycol bis chloroformate

> <Source>
DSSTox2DMolFile

> <Tox>
-2.830

> <CAS>
106-75-2

$$$$

  CDK

  5  5  0  0  0  0  0  0  0  0999 V2000
    0.0000   -1.1519    0.0000 C   0  0  0  0  0  0  0  0  0  0  0  0
    1.1519   -1.8168    0.0000 C   0  0  0  0  0  0  0  0  0  0  0  0
    2.3037   -1.1519    0.0000 C   0  0  0  0  0  0  0  0  0  0  0  0
    2.9687   -0.0000    0.0000 C   0  0  0  0  0  0  0  0  0  0  0  0
    3.6336   -1.1519    0.0000 O   0  0  0  0  0  0  0  0  0  0  0  0
  1  2  1  0  0  0  0 
  2  3  1  0  0  0  0 
  3  4  1  0  0  0  0 
  3  5  1  0  0  0  0 
  4  5  1  0  0  0  0 
M  END
> <Name>
1,2-BUTYLENEOXIDE

> <Source>
DSSTox2DMolFile

> <Tox>
2.255

> <CAS>
106-88-7

$$$$

  CDK

  5  5  0  0  0  0  0  0  0  0999 V2000
    0.0000   -1.1519    0.0000 Cl  0  0  0  0  0  0  0  0  0  0  0  0
    1.1519   -1.8168    0.0000 C   0  0  0  0  0  0  0  0  0  0  0  0
    2.3037   -1.1519    0.0000 C   0  0  0  0  0  0  0  0  0  0  0  0
    2.9687   -0.0000    0.0000 C   0  0  0  0  0  0  0  0  0  0  0  0
    3.6336   -1.1519    0.0000 O   0  0  0  0  0  0  0  0  0  0  0  0
  1  2  1  0  0  0  0 
  2  3  1  0  0  0  0 
  3  4  1  0  0  0  0 
  3  5  1  0  0  0  0 
  4  5  1  0  0  0  0 
M  END
> <Name>
1-CHLORO-2,3-EPOXYPROPANE

> <Source>
DSSTox2DMolFile

> <Tox>
1.215

> <CAS>
106-89-8

$$$$

  CDK

  4  3  0  0  0  0  0  0  0  0999 V2000
    0.0000   -0.0000    0.0000 Br  0  0  0  0  0  0  0  0  0  0  0  0
    1.1513   -0.6638    0.0000 C   0  0  0  0  0  0  0  0  0  0  0  0
    2.3061   -0.0000    0.0000 C   0  0  0  0  0  0  0  0  0  0  0  0
    3.4575   -0.6638    0.0000 Br  0  0  0  0  0  0  0  0  0  0  0  0
  1  2  1  0  0  0  0 
  2  3  1  0  0  0  0 
  3  4  1  0  0  0  0 
M  END
> <Name>
1,2-DIBROMOETHANE

> <Source>
DSSTox2DMolFile

> <Tox>
1.049

> <CAS>
106-93-4

$$$$

  CDK

  4  3  0  0  0  0  0  0  0  0999 V2000
    1.1513   -0.6638    0.0000 C   0  0  0  0  0  0  0  0  0  0  0  0
    2.3061   -0.0000    0.0000 C   0  0  0  0  0  0  0  0  0  0  0  0
    0.0000   -0.0000    0.0000 C   0  0  0  0  0  0  0  0  0  0  0  0
    3.4575   -0.6638    0.0000 C   0  0  0  0  0  0  0  0  0  0  0  0
  1  2  1  0  0  0  0 
  1  3  1  0  0  0  0 
  2  4  1  0  0  0  0 
M  END
> <Name>
N-BUTANE

> <Source>
DSSTox2DMolFile

> <Tox>
3.260

> <CAS>
106-97-8

$$$$

  CDK

  4  3  0  0  0  0  0  0  0  0999 V2000
    0.0000   -0.0000    0.0000 C   0  0  0  0  0  0  0  0  0  0  0  0
    1.1483   -0.6690    0.0000 C   0  0  0  0  0  0  0  0  0  0  0  0
    2.3001   -0.0000    0.0000 C   0  0  0  0  0  0  0  0  0  0  0  0
    3.4485   -0.6690    0.0000 C   0  0  0  0  0  0  0  0  0  0  0  0
  1  2  3  0  0  0  0 
  2  3  1  0  0  0  0 
  3  4  1  0  0  0  0 
M  END
> <Name>
1-BUTYNE

> <Source>
DSSTox2DMolFile

> <Tox>
3.149

> <CAS>
107-00-6

$$$$

  CDK

  4  3  0  0  0  0  0  0  0  0999 V2000
    1.1513   -0.6638    0.0000 C   0  0  0  0  0  0  0  0  0  0  0  0
    0.0000   -0.0000    0.0000 Br  0  0  0  0  0  0  0  0  0  0  0  0
    2.3061   -0.0000    0.0000 C   0  0  0  0  0  0  0  0  0  0  0  0
    3.4575   -0.6638    0.0000 Cl  0  0  0  0  0  0  0  0  0  0  0  0
  1  2  1  0  0  0  0 
  1  3  1  0  0  0  0 
  3  4  1  0  0  0  0 
M  END
> <Name>
1-BROMO-2-CHLOROETHANE

> <Source>
DSSTox2DMolFile

> <Tox>
1.520

> <CAS>
107-04-0

$$$$

  CDK

  4  3  0  0  0  0  0  0  0  0999 V2000
    0.0000   -0.0000    0.0000 C   0  0  0  0  0  0  0  0  0  0  0  0
    1.1513   -0.6638    0.0000 C   0  0  0  0  0  0  0  0  0  0  0  0
    2.3061   -0.0000    0.0000 C   0  0  0  0  0  0  0  0  0  0  0  0
    3.4575   -0.6638    0.0000 Cl  0  0  0  0  0  0  0  0  0  0  0  0
  1  2  2  0  0  0  0 
  2  3  1  0  0  0  0 
  3  4  1  0  0  0  0 
M  END
> <Name>
3-CHLOROPROPYLENE

> <Source>
DSSTox2DMolFile

> <Tox>
2.566

> <CAS>
107-05-1

$$$$

  CDK

  4  3  0  0  0  0  0  0  0  0999 V2000
    0.0000   -0.0000    0.0000 Cl  0  0  0  0  0  0  0  0  0  0  0  0
    1.1513   -0.6638    0.0000 C   0  0  0  0  0  0  0  0  0  0  0  0
    2.3061   -0.0000    0.0000 C   0  0  0  0  0  0  0  0  0  0  0  0
    3.4575   -0.6638    0.0000 Cl  0  0  0  0  0  0  0  0  0  0  0  0
  1  2  1  0  0  0  0 
  2  3  1  0  0  0  0 
  3  4  1  0  0  0  0 
M  END
> <Name>
1,2-DICHLOROETHANE

> <Source>
DSSTox2DMolFile

> <Tox>
1.897

> <CAS>
107-06-2

$$$$

  CDK

  4  3  0  0  0  0  0  0  0  0999 V2000
    0.0000    0.0000    0.0000 C   0  0  0  0  0  0  0  0  0  0  0  0
    0.9356    0.4678    0.0000 C   0  0  0  0  0  0  0  0  0  0  0  0
    1.8192    0.0000    0.0000 C   0  0  0  0  0  0  0  0  0  0  0  0
    2.6508    0.4678    0.0000 I   0  0  0  0  0  0  0  0  0  0  0  0
  1  2  1  0  0  0  0 
  2  3  1  0  0  0  0 
  3  4  1  0  0  0  0 
M  END
> <Name>
1-IODOPROPANE

> <Source>
NIST2DMolFile

> <Tox>
1.634

> <CAS>
107-08-4

$$$$

  CDK

  4  3  0  0  0  0  0  0  0  0999 V2000
    0.0000   -0.0000    0.0000 C   0  0  0  0  0  0  0  0  0  0  0  0
    1.1513   -0.6638    0.0000 C   0  0  0  0  0  0  0  0  0  0  0  0
    2.3061   -0.0000    0.0000 C   0  0  0  0  0  0  0  0  0  0  0  0
    3.4575   -0.6638    0.0000 N   0  0  0  0  0  0  0  0  0  0  0  0
  1  2  1  0  0  0  0 
  2  3  1  0  0  0  0 
  3  4  1  0  0  0  0 
M  END
> <Name>
PROPYLAMINE

> <Source>
DSSTox2DMolFile

> <Tox>
2.491

> <CAS>
107-10-8

$$$$

  CDK

  4  3  0  0  0  0  0  0  0  0999 V2000
    0.0000   -0.0000    0.0000 N   0  0  0  0  0  0  0  0  0  0  0  0
    1.1513   -0.6638    0.0000 C   0  0  0  0  0  0  0  0  0  0  0  0
    2.3061   -0.0000    0.0000 C   0  0  0  0  0  0  0  0  0  0  0  0
    3.4575   -0.6638    0.0000 C   0  0  0  0  0  0  0  0  0  0  0  0
  1  2  1  0  0  0  0 
  2  3  1  0  0  0  0 
  3  4  2  0  0  0  0 
M  END
> <Name>
ALLYLAMINE

> <Source>
DSSTox2DMolFile

> <Tox>
2.384

> <CAS>
107-11-9

$$$$

  CDK

  4  3  0  0  0  0  0  0  0  0999 V2000
    0.0000   -0.0000    0.0000 C   0  0  0  0  0  0  0  0  0  0  0  0
    0.6652   -1.1508    0.0000 C   0  0  0  0  0  0  0  0  0  0  0  0
    1.9956   -1.1508    0.0000 C   0  0  0  0  0  0  0  0  0  0  0  0
    3.3260   -1.1508    0.0000 N   0  0  0  0  0  0  0  0  0  0  0  0
  1  2  1  0  0  0  0 
  2  3  1  0  0  0  0 
  3  4  3  0  0  0  0 
M  END
> <Name>
PROPIONITRILE

> <Source>
DSSTox2DMolFile

> <Tox>
1.676

> <CAS>
107-12-0

$$$$

  CDK

  4  3  0  0  0  0  0  0  0  0999 V2000
    0.0000   -0.0000    0.0000 C   0  0  0  0  0  0  0  0  0  0  0  0
    0.6652   -1.1508    0.0000 C   0  0  0  0  0  0  0  0  0  0  0  0
    1.9956   -1.1508    0.0000 C   0  0  0  0  0  0  0  0  0  0  0  0
    3.3260   -1.1508    0.0000 N   0  0  0  0  0  0  0  0  0  0  0  0
  1  2  2  0  0  0  0 
  2  3  1  0  0  0  0 
  3  4  3  0  0  0  0 
M  END
> <Name>
ACRYLONITRILE

> <Source>
DSSTox2DMolFile

> <Tox>
2.037

> <CAS>
107-13-1

$$$$

  CDK

  4  3  0  0  0  0  0  0  0  0999 V2000
    0.0000   -0.0000    0.0000 N   0  0  0  0  0  0  0  0  0  0  0  0
    1.1513   -0.6638    0.0000 C   0  0  0  0  0  0  0  0  0  0  0  0
    2.3061   -0.0000    0.0000 C   0  0  0  0  0  0  0  0  0  0  0  0
    3.4575   -0.6638    0.0000 N   0  0  0  0  0  0  0  0  0  0  0  0
  1  2  1  0  0  0  0 
  2  3  1  0  0  0  0 
  3  4  1  0  0  0  0 
M  END
> <Name>
1,2-DIAMINOETHANE

> <Source>
DSSTox2DMolFile

> <Tox>
1.079

> <CAS>
107-15-3

$$$$

  CDK

  4  3  0  0  0  0  0  0  0  0999 V2000
    0.0000   -0.0000    0.0000 C   0  0  0  0  0  0  0  0  0  0  0  0
    1.1513   -0.6638    0.0000 C   0  0  0  0  0  0  0  0  0  0  0  0
    2.3061   -0.0000    0.0000 C   0  0  0  0  0  0  0  0  0  0  0  0
    3.4575   -0.6638    0.0000 O   0  0  0  0  0  0  0  0  0  0  0  0
  1  2  2  0  0  0  0 
  2  3  1  0  0  0  0 
  3  4  1  0  0  0  0 
M  END
> <Name>
ALLYL ALCOHOL

> <Source>
DSSTox2DMolFile

> <Tox>
1.417

> <CAS>
107-18-6

$$$$

  CDK

  4  3  0  0  0  0  0  0  0  0999 V2000
    0.6652   -1.1508    0.0000 C   0  0  0  0  0  0  0  0  0  0  0  0
    0.0000   -0.0000    0.0000 O   0  0  0  0  0  0  0  0  0  0  0  0
    1.9956   -1.1508    0.0000 C   0  0  0  0  0  0  0  0  0  0  0  0
    3.3260   -1.1508    0.0000 C   0  0  0  0  0  0  0  0  0  0  0  0
  1  2  1  0  0  0  0 
  1  3  1  0  0  0  0 
  3  4  3  0  0  0  0 
M  END
> <Name>
PROPARGYL ALCOHOL

> <Source>
DSSTox2DMolFile

> <Tox>
1.193

> <CAS>
107-19-7

$$$$

  CDK

  4  3  0  0  0  0  0  0  0  0999 V2000
    0.0000   -0.0000    0.0000 O   0  0  0  0  0  0  0  0  0  0  0  0
    1.1513   -0.6638    0.0000 C   0  0  0  0  0  0  0  0  0  0  0  0
    2.3061   -0.0000    0.0000 C   0  0  0  0  0  0  0  0  0  0  0  0
    3.4575   -0.6638    0.0000 Cl  0  0  0  0  0  0  0  0  0  0  0  0
  1  2  2  0  0  0  0 
  2  3  1  0  0  0  0 
  3  4  1  0  0  0  0 
M  END
> <Name>
CHLOROACETALDEHYDE

> <Source>
DSSTox2DMolFile

> <Tox>
1.808

> <CAS>
107-20-0

$$$$

  CDK

  4  3  0  0  0  0  0  0  0  0999 V2000
    1.1513   -0.6638    0.0000 C   0  0  0  0  0  0  0  0  0  0  0  0
    2.3061   -0.0000    0.0000 C   0  0  0  0  0  0  0  0  0  0  0  0
    0.0000   -0.0000    0.0000 O   0  0  0  0  0  0  0  0  0  0  0  0
    3.4575   -0.6638    0.0000 O   0  0  0  0  0  0  0  0  0  0  0  0
  1  2  1  0  0  0  0 
  1  3  1  0  0  0  0 
  2  4  1  0  0  0  0 
M  END
> <Name>
ETHYLENE GLYCOL

> <Source>
DSSTox2DMolFile

> <Tox>
-1.036

> <CAS>
107-21-1

$$$$

  CDK

  4  3  0  0  0  0  0  0  0  0999 V2000
    0.0000   -0.0000    0.0000 O   0  0  0  0  0  0  0  0  0  0  0  0
    1.1513   -0.6638    0.0000 C   0  0  0  0  0  0  0  0  0  0  0  0
    2.3061   -0.0000    0.0000 C   0  0  0  0  0  0  0  0  0  0  0  0
    3.4575   -0.6638    0.0000 O   0  0  0  0  0  0  0  0  0  0  0  0
  1  2  2  0  0  0  0 
  2  3  1  0  0  0  0 
  3  4  2  0  0  0  0 
M  END
> <Name>
GLYOXAL

> <Source>
DSSTox2DMolFile

> <Tox>
2.407

> <CAS>
107-22-2

$$$$

  CDK

  7  6  0  0  0  0  0  0  0  0999 V2000
    2.0458    0.9480    0.0000 C   0  0  0  0  0  0  0  0  0  0  0  0
    1.0478    0.9480    0.0000 Si  0  0  0  0  0  0  0  0  0  0  0  0
    2.5946    1.7963    0.0000 C   0  0  0  0  0  0  0  0  0  0  0  0
    1.0478    0.0000    0.0000 Cl  0  0  0  0  0  0  0  0  0  0  0  0
    1.0478    1.9460    0.0000 Cl  0  0  0  0  0  0  0  0  0  0  0  0
    0.0000    0.9480    0.0000 Cl  0  0  0  0  0  0  0  0  0  0  0  0
    3.5926    1.7963    0.0000 C   0  0  0  0  0  0  0  0  0  0  0  0
  1  2  1  0  0  0  0 
  1  3  1  0  0  0  0 
  2  4  1  0  0  0  0 
  2  5  1  0  0  0  0 
  2  6  1  0  0  0  0 
  3  7  2  0  0  0  0 
M  END
> <Name>
ALLYTRICHLOROSILANE

> <Source>
NIST2DMolFile

> <Tox>
1.246

> <CAS>
107-37-9

$$$$

  CDK

  8  7  0  0  0  0  0  0  0  0999 V2000
    0.0000   -0.6676    0.0000 C   0  0  0  0  0  0  0  0  0  0  0  0
    1.1683   -1.3260    0.0000 C   0  0  0  0  0  0  0  0  0  0  0  0
    2.3042   -0.6676    0.0000 C   0  0  0  0  0  0  0  0  0  0  0  0
    1.1683   -2.6520    0.0000 C   0  0  0  0  0  0  0  0  0  0  0  0
    3.4679   -1.3260    0.0000 C   0  0  0  0  0  0  0  0  0  0  0  0
    4.6363   -0.6676    0.0000 C   0  0  0  0  0  0  0  0  0  0  0  0
    3.4679   -2.6520    0.0000 C   0  0  0  0  0  0  0  0  0  0  0  0
    3.4679   -0.0000    0.0000 C   0  0  0  0  0  0  0  0  0  0  0  0
  1  2  2  0  0  0  0 
  2  3  1  0  0  0  0 
  2  4  1  0  0  0  0 
  3  5  1  0  0  0  0 
  5  6  1  0  0  0  0 
  5  7  1  0  0  0  0 
  5  8  1  0  0  0  0 
M  END
> <Name>
2,4,4-TRIMETHYL-1-PENTENE

> <Source>
DSSTox2DMolFile

> <Tox>
1.650

> <CAS>
107-39-1

$$$$

  CDK

  8  7  0  0  0  0  0  0  0  0999 V2000
    3.3874   -0.1694    0.0000 C   0  0  0  0  0  0  0  0  0  0  0  0
    3.2950   -1.2728    0.0000 C   0  0  0  0  0  0  0  0  0  0  0  0
    2.2069   -1.8990    0.0000 C   0  0  0  0  0  0  0  0  0  0  0  0
    5.1324   -0.9803    0.0000 C   0  0  0  0  0  0  0  0  0  0  0  0
    3.9366   -2.3763    0.0000 O   0  0  0  0  0  0  0  0  0  0  0  0
    1.1035   -1.2728    0.0000 C   0  0  0  0  0  0  0  0  0  0  0  0
    0.0000   -1.8990    0.0000 O   0  0  0  0  0  0  0  0  0  0  0  0
    1.1035   -0.0000    0.0000 C   0  0  0  0  0  0  0  0  0  0  0  0
  1  2  1  0  0  0  0 
  2  3  1  0  0  0  0 
  2  4  1  0  0  0  0 
  2  5  1  0  0  0  0 
  3  6  1  0  0  0  0 
  6  7  1  0  0  0  0 
  6  8  1  0  0  0  0 
M  END
> <Name>
2-METHYL-2,4-PENTANEDIOL

> <Source>
DSSTox2DMolFile

> <Tox>
-1.886

> <CAS>
107-41-5

$$$$

  CDK

  8  7  0  0  0  0  0  0  0  0999 V2000
   -0.6356   -0.2128    2.5971 P   0  0  0  0  0  0  0  0  0  0  0  0
   -1.7811    0.8226    2.3014 F   0  0  0  0  0  0  0  0  0  0  0  0
    0.6576    0.4535    1.8854 O   0  0  0  0  0  0  0  0  0  0  0  0
   -0.4697   -0.3787    4.0811 O   0  0  0  0  0  0  0  0  0  0  0  0
   -0.8801   -1.7563    1.7416 C   0  0  0  0  0  0  0  0  0  0  0  0
    0.6222    0.7466    0.4999 C   0  0  0  0  0  0  0  0  0  0  0  0
   -0.5065    1.7284    0.2245 C   0  0  0  0  0  0  0  0  0  0  0  0
    1.9723    1.3001    0.0703 C   0  0  0  0  0  0  0  0  0  0  0  0
  1  2  1  0  0  0  0 
  1  3  1  0  0  0  0 
  1  4  2  0  0  0  0 
  1  5  1  0  0  0  0 
  3  6  1  0  0  0  0 
  6  7  1  0  0  0  0 
  6  8  1  0  0  0  0 
M  END
> <Name>
SARIN

> <Source>
Chemidplus3DMolFile

> <Tox>
0.456

> <CAS>
107-44-8

$$$$

  CDK

  9  8  0  0  0  0  0  0  0  0999 V2000
    1.1555   -1.3311    0.0000 Si  0  0  0  0  0  0  0  0  0  0  0  0
    2.3110   -1.9874    0.0000 O   0  0  0  0  0  0  0  0  0  0  0  0
    1.1555   -0.0000    0.0000 C   0  0  0  0  0  0  0  0  0  0  0  0
    0.0000   -1.9874    0.0000 C   0  0  0  0  0  0  0  0  0  0  0  0
    1.1555   -2.6622    0.0000 C   0  0  0  0  0  0  0  0  0  0  0  0
    3.4665   -1.3311    0.0000 Si  0  0  0  0  0  0  0  0  0  0  0  0
    4.6220   -1.9874    0.0000 C   0  0  0  0  0  0  0  0  0  0  0  0
    3.4665   -0.0000    0.0000 C   0  0  0  0  0  0  0  0  0  0  0  0
    3.4665   -2.6622    0.0000 C   0  0  0  0  0  0  0  0  0  0  0  0
  1  2  1  0  0  0  0 
  1  3  1  0  0  0  0 
  1  4  1  0  0  0  0 
  1  5  1  0  0  0  0 
  2  6  1  0  0  0  0 
  6  7  1  0  0  0  0 
  6  8  1  0  0  0  0 
  6  9  1  0  0  0  0 
M  END
> <Name>
HEXAMETHYLDISILOXANE

> <Source>
DSSTox2DMolFile

> <Tox>
1.624

> <CAS>
107-46-0

$$$$

  CDK

 17 16  0  0  0  0  0  0  0  0999 V2000
    2.7658   -3.3097    0.0000 O   0  0  0  0  0  0  0  0  0  0  0  0
    1.3265   -3.3097    0.0000 P   0  0  0  0  0  0  0  0  0  0  0  0
    4.1056   -3.3097    0.0000 P   0  0  0  0  0  0  0  0  0  0  0  0
    0.0000   -3.3097    0.0000 O   0  0  0  0  0  0  0  0  0  0  0  0
    1.3265   -1.9832    0.0000 O   0  0  0  0  0  0  0  0  0  0  0  0
    1.3265   -4.6363    0.0000 O   0  0  0  0  0  0  0  0  0  0  0  0
    5.4322   -3.3097    0.0000 O   0  0  0  0  0  0  0  0  0  0  0  0
    4.1056   -4.6363    0.0000 O   0  0  0  0  0  0  0  0  0  0  0  0
    4.1056   -1.9832    0.0000 O   0  0  0  0  0  0  0  0  0  0  0  0
    0.1791   -1.3265    0.0000 C   0  0  0  0  0  0  0  0  0  0  0  0
    2.4740   -5.2929    0.0000 C   0  0  0  0  0  0  0  0  0  0  0  0
    5.2398   -5.2730    0.0000 C   0  0  0  0  0  0  0  0  0  0  0  0
    2.9715   -1.3265    0.0000 C   0  0  0  0  0  0  0  0  0  0  0  0
    0.1791   -0.0000    0.0000 C   0  0  0  0  0  0  0  0  0  0  0  0
    2.4740   -6.6327    0.0000 C   0  0  0  0  0  0  0  0  0  0  0  0
    5.2398   -6.5995    0.0000 C   0  0  0  0  0  0  0  0  0  0  0  0
    2.9715   -0.0332    0.0000 C   0  0  0  0  0  0  0  0  0  0  0  0
  1  2  1  0  0  0  0 
  1  3  1  0  0  0  0 
  2  4  2  0  0  0  0 
  2  5  1  0  0  0  0 
  2  6  1  0  0  0  0 
  3  7  2  0  0  0  0 
  3  8  1  0  0  0  0 
  3  9  1  0  0  0  0 
  5 10  1  0  0  0  0 
  6 11  1  0  0  0  0 
  8 12  1  0  0  0  0 
  9 13  1  0  0  0  0 
 10 14  1  0  0  0  0 
 11 15  1  0  0  0  0 
 12 16  1  0  0  0  0 
 13 17  1  0  0  0  0 
M  END
> <Name>
TETRAETHYL PYROPHOSPHATE

> <Source>
DSSTox2DMolFile

> <Tox>
-3.585

> <CAS>
107-49-3

$$$$

  CDK

 28 28  0  0  0  0  0  0  0  0999 V2000
    1.4306    1.6879    1.6785 Si  0  0  0  0  0  0  0  0  0  0  0  0
    0.1861    1.5900    0.5658 O   0  0  0  0  0  0  0  0  0  0  0  0
    2.6451    0.6230    1.2365 O   0  0  0  0  0  0  0  0  0  0  0  0
    2.1082    3.4377    1.8078 C   0  0  0  0  0  0  0  0  0  0  0  0
    0.7796    1.2219    3.3849 C   0  0  0  0  0  0  0  0  0  0  0  0
   -0.5305    2.3930   -0.7131 Si  0  0  0  0  0  0  0  0  0  0  0  0
    3.6221    0.1878   -0.0519 Si  0  0  0  0  0  0  0  0  0  0  0  0
   -1.5901    1.3523   -1.4792 O   0  0  0  0  0  0  0  0  0  0  0  0
   -1.4237    3.9288   -0.0942 C   0  0  0  0  0  0  0  0  0  0  0  0
    0.7665    2.9667   -1.9536 C   0  0  0  0  0  0  0  0  0  0  0  0
    2.6725   -0.3818   -1.3078 O   0  0  0  0  0  0  0  0  0  0  0  0
    4.6271    1.6658   -0.6416 C   0  0  0  0  0  0  0  0  0  0  0  0
    4.8407   -1.1361    0.5000 C   0  0  0  0  0  0  0  0  0  0  0  0
   -3.1000    0.6450   -1.3843 Si  0  0  0  0  0  0  0  0  0  0  0  0
    1.5919   -1.5974   -1.7065 Si  0  0  0  0  0  0  0  0  0  0  0  0
   -3.1056   -0.5819   -0.2527 O   0  0  0  0  0  0  0  0  0  0  0  0
   -3.5356   -0.0813   -3.0723 C   0  0  0  0  0  0  0  0  0  0  0  0
   -4.4217    1.9210   -0.9802 C   0  0  0  0  0  0  0  0  0  0  0  0
    0.3867   -1.6565   -0.5526 O   0  0  0  0  0  0  0  0  0  0  0  0
    2.4822   -3.2456   -1.8600 C   0  0  0  0  0  0  0  0  0  0  0  0
    0.8237   -1.2211   -3.3864 C   0  0  0  0  0  0  0  0  0  0  0  0
   -2.8612   -0.9494    1.3575 Si  0  0  0  0  0  0  0  0  0  0  0  0
   -0.1666   -2.4974    0.7800 Si  0  0  0  0  0  0  0  0  0  0  0  0
   -1.3083   -1.5468    1.5574 O   0  0  0  0  0  0  0  0  0  0  0  0
   -3.1186    0.5522    2.4573 C   0  0  0  0  0  0  0  0  0  0  0  0
   -4.1112   -2.2541    1.8953 C   0  0  0  0  0  0  0  0  0  0  0  0
   -0.9250   -4.1342    0.2448 C   0  0  0  0  0  0  0  0  0  0  0  0
    1.2348   -2.8895    1.9707 C   0  0  0  0  0  0  0  0  0  0  0  0
  1  2  1  0  0  0  0 
  1  3  1  0  0  0  0 
  1  4  1  0  0  0  0 
  1  5  1  0  0  0  0 
  6  2  1  0  0  0  0 
  7  3  1  0  0  0  0 
  6  8  1  0  0  0  0 
  6  9  1  0  0  0  0 
  6 10  1  0  0  0  0 
  7 11  1  0  0  0  0 
  7 12  1  0  0  0  0 
  7 13  1  0  0  0  0 
 14  8  1  0  0  0  0 
 15 11  1  0  0  0  0 
 14 16  1  0  0  0  0 
 14 17  1  0  0  0  0 
 14 18  1  0  0  0  0 
 15 19  1  0  0  0  0 
 15 20  1  0  0  0  0 
 15 21  1  0  0  0  0 
 22 16  1  0  0  0  0 
 23 19  1  0  0  0  0 
 22 24  1  0  0  0  0 
 22 25  1  0  0  0  0 
 22 26  1  0  0  0  0 
 23 24  1  0  0  0  0 
 23 27  1  0  0  0  0 
 23 28  1  0  0  0  0 
M  END
> <Name>
TETRADECAMETHYLCYCLOHEPTASILOXANE

> <Source>
Chemidplus3DMolFile

> <Tox>
-1.951

> <CAS>
107-50-6

$$$$

  CDK

 13 12  0  0  0  0  0  0  0  0999 V2000
   -4.3439    0.0288   -2.0329 Si  0  0  0  0  0  0  0  0  0  0  0  0
   -2.7416    0.1171   -1.5539 O   0  0  0  0  0  0  0  0  0  0  0  0
   -4.4357   -0.8309   -3.4671 O   0  0  0  0  0  0  0  0  0  0  0  0
   -5.3617   -0.8121   -0.6918 C   0  0  0  0  0  0  0  0  0  0  0  0
   -5.0560    1.7533   -2.2802 C   0  0  0  0  0  0  0  0  0  0  0  0
   -1.2420    0.6580   -2.0665 Si  0  0  0  0  0  0  0  0  0  0  0  0
   -5.5330   -1.3729   -4.6098 Si  0  0  0  0  0  0  0  0  0  0  0  0
    0.0575    0.2901   -0.7568 C   0  0  0  0  0  0  0  0  0  0  0  0
   -1.2747    2.5154   -2.3622 C   0  0  0  0  0  0  0  0  0  0  0  0
   -0.7219   -0.1866   -3.6649 C   0  0  0  0  0  0  0  0  0  0  0  0
   -4.6363   -2.3220   -5.9644 C   0  0  0  0  0  0  0  0  0  0  0  0
   -6.8122   -2.5165   -3.8388 C   0  0  0  0  0  0  0  0  0  0  0  0
   -6.4350    0.0761   -5.4005 C   0  0  0  0  0  0  0  0  0  0  0  0
  1  2  1  0  0  0  0 
  1  3  1  0  0  0  0 
  1  4  1  0  0  0  0 
  1  5  1  0  0  0  0 
  6  2  1  0  0  0  0 
  7  3  1  0  0  0  0 
  6  8  1  0  0  0  0 
  6  9  1  0  0  0  0 
  6 10  1  0  0  0  0 
  7 11  1  0  0  0  0 
  7 12  1  0  0  0  0 
  7 13  1  0  0  0  0 
M  END
> <Name>
OCTAMETHYLTRISILOXANE

> <Source>
Chemidplus3DMolFile

> <Tox>
0.524

> <CAS>
107-51-7

$$$$

  CDK

 25 24  0  0  0  0  0  0  0  0999 V2000
    4.2443   11.5203    0.0000 C   0  0  0  0  0  0  0  0  0  0  0  0
    2.8451   11.5203    0.0000 Si  0  0  0  0  0  0  0  0  0  0  0  0
    2.1455   12.7329    0.0000 C   0  0  0  0  0  0  0  0  0  0  0  0
    3.1249   10.1677    0.0000 C   0  0  0  0  0  0  0  0  0  0  0  0
    1.5391   11.0539    0.0000 O   0  0  0  0  0  0  0  0  0  0  0  0
    1.3059    9.7013    0.0000 Si  0  0  0  0  0  0  0  0  0  0  0  0
    2.3787    8.7685    0.0000 C   0  0  0  0  0  0  0  0  0  0  0  0
    0.0000   10.1677    0.0000 C   0  0  0  0  0  0  0  0  0  0  0  0
    0.6063    8.4886    0.0000 O   0  0  0  0  0  0  0  0  0  0  0  0
    1.3059    7.2760    0.0000 Si  0  0  0  0  0  0  0  0  0  0  0  0
    2.7052    7.2760    0.0000 C   0  0  0  0  0  0  0  0  0  0  0  0
    0.0000    6.7629    0.0000 C   0  0  0  0  0  0  0  0  0  0  0  0
    1.5391    5.8767    0.0000 O   0  0  0  0  0  0  0  0  0  0  0  0
    2.8451    5.4103    0.0000 Si  0  0  0  0  0  0  0  0  0  0  0  0
    3.9178    6.2965    0.0000 C   0  0  0  0  0  0  0  0  0  0  0  0
    2.1455    4.1977    0.0000 C   0  0  0  0  0  0  0  0  0  0  0  0
    4.2443    4.2443    0.0000 O   0  0  0  0  0  0  0  0  0  0  0  0
    3.9178    2.4253    0.0000 Si  0  0  0  0  0  0  0  0  0  0  0  0
    4.1977    1.0727    0.0000 C   0  0  0  0  0  0  0  0  0  0  0  0
    2.6119    2.9384    0.0000 C   0  0  0  0  0  0  0  0  0  0  0  0
    5.3170    2.4253    0.0000 O   0  0  0  0  0  0  0  0  0  0  0  0
    6.0167    1.2127    0.0000 Si  0  0  0  0  0  0  0  0  0  0  0  0
    5.3170    0.0000    0.0000 C   0  0  0  0  0  0  0  0  0  0  0  0
    7.0894    0.3265    0.0000 C   0  0  0  0  0  0  0  0  0  0  0  0
    7.0894    2.1455    0.0000 C   0  0  0  0  0  0  0  0  0  0  0  0
  1  2  1  0  0  0  0 
  2  3  1  0  0  0  0 
  2  4  1  0  0  0  0 
  2  5  1  0  0  0  0 
  5  6  1  0  0  0  0 
  6  7  1  0  0  0  0 
  6  8  1  0  0  0  0 
  6  9  1  0  0  0  0 
  9 10  1  0  0  0  0 
 10 11  1  0  0  0  0 
 10 12  1  0  0  0  0 
 10 13  1  0  0  0  0 
 13 14  1  0  0  0  0 
 14 15  1  0  0  0  0 
 14 16  1  0  0  0  0 
 14 17  1  0  0  0  0 
 17 18  1  0  0  0  0 
 18 19  1  0  0  0  0 
 18 20  1  0  0  0  0 
 18 21  1  0  0  0  0 
 21 22  1  0  0  0  0 
 22 23  1  0  0  0  0 
 22 24  1  0  0  0  0 
 22 25  1  0  0  0  0 
M  END
> <Name>
TETRADECAMETHYLHEXASILOXANE

> <Source>
IndexNet2DMolFile

> <Tox>
-1.532

> <CAS>
107-52-8

$$$$

  CDK

  6  5  0  0  0  0  0  0  0  0999 V2000
    1.7391    1.4906    0.0000 C   0  0  0  0  0  0  0  0  0  0  0  0
    0.8944    0.9938    0.0000 C   0  0  0  0  0  0  0  0  0  0  0  0
    2.5838    0.9938    0.0000 C   0  0  0  0  0  0  0  0  0  0  0  0
    0.8944    0.0000    0.0000 Br  0  0  0  0  0  0  0  0  0  0  0  0
    0.0000    1.4906    0.0000 C   0  0  0  0  0  0  0  0  0  0  0  0
    3.4781    1.4906    0.0000 C   0  0  0  0  0  0  0  0  0  0  0  0
  1  2  1  0  0  0  0 
  1  3  1  0  0  0  0 
  2  4  1  0  0  0  0 
  2  5  1  0  0  0  0 
  3  6  1  0  0  0  0 
M  END
> <Name>
2-BROMOPENTANE

> <Source>
NIST2DMolFile

> <Tox>
1.328

> <CAS>
107-81-3

$$$$

  CDK

  6  5  0  0  0  0  0  0  0  0999 V2000
    3.0514    0.0000    0.0000 Br  0  0  0  0  0  0  0  0  0  0  0  0
    2.0343    0.0000    0.0000 C   0  0  0  0  0  0  0  0  0  0  0  0
    1.5257    0.8646    0.0000 C   0  0  0  0  0  0  0  0  0  0  0  0
    0.5086    0.8646    0.0000 C   0  0  0  0  0  0  0  0  0  0  0  0
    0.0000    1.6783    0.0000 C   0  0  0  0  0  0  0  0  0  0  0  0
    0.0000    0.0000    0.0000 C   0  0  0  0  0  0  0  0  0  0  0  0
  1  2  1  0  0  0  0 
  2  3  1  0  0  0  0 
  3  4  1  0  0  0  0 
  4  5  1  0  0  0  0 
  4  6  1  0  0  0  0 
M  END
> <Name>
1-BROMO-3-METHYLBUTANE

> <Source>
NIST2DMolFile

> <Tox>
1.539

> <CAS>
107-82-4

$$$$

  CDK

  6  5  0  0  0  0  0  0  0  0999 V2000
    0.0000   -0.0000    0.0000 C   0  0  0  0  0  0  0  0  0  0  0  0
    1.1743   -0.6631    0.0000 C   0  0  0  0  0  0  0  0  0  0  0  0
    2.3026   -0.0000    0.0000 C   0  0  0  0  0  0  0  0  0  0  0  0
    1.1743   -1.9986    0.0000 C   0  0  0  0  0  0  0  0  0  0  0  0
    3.4630   -0.6631    0.0000 C   0  0  0  0  0  0  0  0  0  0  0  0
    4.6051   -0.0000    0.0000 C   0  0  0  0  0  0  0  0  0  0  0  0
  1  2  1  0  0  0  0 
  2  3  1  0  0  0  0 
  2  4  1  0  0  0  0 
  3  5  1  0  0  0  0 
  5  6  1  0  0  0  0 
M  END
> <Name>
2-METHYLPENTANE

> <Source>
DSSTox2DMolFile

> <Tox>
2.324

> <CAS>
107-83-5

$$$$

  CDK

  6  5  0  0  0  0  0  0  0  0999 V2000
    0.0000   -0.0000    0.0000 C   0  0  0  0  0  0  0  0  0  0  0  0
    0.0000   -1.3307    0.0000 C   0  0  0  0  0  0  0  0  0  0  0  0
    1.1509   -1.9943    0.0000 C   0  0  0  0  0  0  0  0  0  0  0  0
    2.3053   -1.3307    0.0000 C   0  0  0  0  0  0  0  0  0  0  0  0
    2.3053   -0.0000    0.0000 O   0  0  0  0  0  0  0  0  0  0  0  0
    3.4563   -1.9943    0.0000 C   0  0  0  0  0  0  0  0  0  0  0  0
  1  2  1  0  0  0  0 
  2  3  1  0  0  0  0 
  3  4  1  0  0  0  0 
  4  5  2  0  0  0  0 
  4  6  1  0  0  0  0 
M  END
> <Name>
2-PENTANONE

> <Source>
DSSTox2DMolFile

> <Tox>
1.549

> <CAS>
107-87-9

$$$$

  CDK

  6  5  0  0  0  0  0  0  0  0999 V2000
    4.6084   -1.9954    0.0000 O   0  0  0  0  0  0  0  0  0  0  0  0
    3.4563   -1.3318    0.0000 C   0  0  0  0  0  0  0  0  0  0  0  0
    2.3042   -1.9954    0.0000 C   0  0  0  0  0  0  0  0  0  0  0  0
    3.4563   -0.0000    0.0000 O   0  0  0  0  0  0  0  0  0  0  0  0
    1.1521   -1.3318    0.0000 C   0  0  0  0  0  0  0  0  0  0  0  0
    0.0000   -1.9954    0.0000 C   0  0  0  0  0  0  0  0  0  0  0  0
  1  2  1  0  0  0  0 
  2  3  1  0  0  0  0 
  2  4  2  0  0  0  0 
  3  5  1  0  0  0  0 
  5  6  1  0  0  0  0 
M  END
> <Name>
BUTYRIC ACID

> <Source>
DSSTox2DMolFile

> <Tox>
0.217

> <CAS>
107-92-6

$$$$

  CDK

  6  5  0  0  0  0  0  0  0  0999 V2000
    2.4323    2.0170    1.3221 C   0  0  0  0  0  0  0  0  0  0  0  0
    3.8259    1.5523    1.4284 C   0  0  0  0  0  0  0  0  0  0  0  0
    2.1412    3.3024    1.0948 C   0  0  0  0  0  0  0  0  0  0  0  0
    3.9668    0.2192    1.6314 O   0  0  0  0  0  0  0  0  0  0  0  0
    4.8664    2.1875    1.3614 O   0  0  0  0  0  0  0  0  0  0  0  0
    0.7528    3.7965    0.9809 C   0  0  0  0  0  0  0  0  0  0  0  0
  1  2  1  0  0  0  0 
  1  3  2  0  0  0  0 
  2  4  1  0  0  0  0 
  2  5  2  0  0  0  0 
  3  6  1  0  0  0  0 
M  END
> <Name>
CROTONIC ACID

> <Source>
NIST3DMolFile

> <Tox>
-0.595

> <CAS>
107-93-7

$$$$

  CDK

  6  5  0  0  0  0  0  0  0  0999 V2000
    1.1553   -1.3355    0.0000 C   0  0  0  0  0  0  0  0  0  0  0  0
    2.3105   -1.9917    0.0000 C   0  0  0  0  0  0  0  0  0  0  0  0
    0.0000   -1.9917    0.0000 O   0  0  0  0  0  0  0  0  0  0  0  0
    1.1553   -0.0000    0.0000 O   0  0  0  0  0  0  0  0  0  0  0  0
    3.4658   -1.3355    0.0000 C   0  0  0  0  0  0  0  0  0  0  0  0
    4.6211   -1.9917    0.0000 S   0  0  0  0  0  0  0  0  0  0  0  0
  1  2  1  0  0  0  0 
  1  3  1  0  0  0  0 
  1  4  2  0  0  0  0 
  2  5  1  0  0  0  0 
  5  6  1  0  0  0  0 
M  END
> <Name>
3-MERCAPTOPROPIONIC ACID

> <Source>
DSSTox2DMolFile

> <Tox>
-1.303

> <CAS>
107-96-0

$$$$

  CDK

  6  5  0  0  0  0  0  0  0  0999 V2000
    3.4587   -0.0000    0.0000 O   0  0  0  0  0  0  0  0  0  0  0  0
    3.4587   -1.3281    0.0000 C   0  0  0  0  0  0  0  0  0  0  0  0
    2.3104   -1.9922    0.0000 C   0  0  0  0  0  0  0  0  0  0  0  0
    4.6116   -1.9922    0.0000 C   0  0  0  0  0  0  0  0  0  0  0  0
    1.1529   -1.3281    0.0000 O   0  0  0  0  0  0  0  0  0  0  0  0
    0.0000   -1.9922    0.0000 C   0  0  0  0  0  0  0  0  0  0  0  0
  1  2  1  0  0  0  0 
  3  2  1  0  0  0  0 
  2  4  1  0  0  0  0 
  5  3  1  0  0  0  0 
  6  5  1  0  0  0  0 
M  END
> <Name>
1-METHOXY-2-PROPANOL

> <Source>
DSSTox2DMolFile

> <Tox>
1.097

> <CAS>
107-98-2

$$$$

  CDK

  6  5  0  0  0  0  0  0  0  0999 V2000
    3.4563   -0.0000    0.0000 O   0  0  0  0  0  0  0  0  0  0  0  0
    3.4563   -1.3318    0.0000 N   0  0  0  0  0  0  0  0  0  0  0  0
    2.3042   -1.9954    0.0000 C   0  0  0  0  0  0  0  0  0  0  0  0
    4.6084   -1.9954    0.0000 O   0  0  0  0  0  0  0  0  0  0  0  0
    1.1521   -1.3318    0.0000 C   0  0  0  0  0  0  0  0  0  0  0  0
    0.0000   -1.9954    0.0000 C   0  0  0  0  0  0  0  0  0  0  0  0
  1  2  2  0  0  0  0 
  2  3  1  0  0  0  0 
  2  4  1  0  0  0  0 
  3  5  1  0  0  0  0 
  5  6  1  0  0  0  0 
M  CHG  1   2   1
M  CHG  1   4  -1
M  END
> <Name>
1-NITROPROPANE

> <Source>
DSSTox2DMolFile

> <Tox>
1.004

> <CAS>
108-03-2

$$$$

  CDK

  7  6  0  0  0  0  0  0  0  0999 V2000
    3.4870    3.4777    2.3319 C   0  0  0  0  0  0  0  0  0  0  0  0
    2.0616    3.9474    2.0227 C   0  0  0  0  0  0  0  0  0  0  0  0
    3.8644    2.1111    1.7482 C   0  0  0  0  0  0  0  0  0  0  0  0
    1.7863    3.9408    0.5280 C   0  0  0  0  0  0  0  0  0  0  0  0
    1.0183    3.1337    2.7693 C   0  0  0  0  0  0  0  0  0  0  0  0
    5.3514    2.0643    1.4319 C   0  0  0  0  0  0  0  0  0  0  0  0
    3.5030    0.9749    2.6908 C   0  0  0  0  0  0  0  0  0  0  0  0
  1  2  1  0  0  0  0 
  1  3  1  0  0  0  0 
  2  4  1  0  0  0  0 
  2  5  1  0  0  0  0 
  3  6  1  0  0  0  0 
  3  7  1  0  0  0  0 
M  END
> <Name>
2,4-DIMETHYLPENTANE

> <Source>
NIST3DMolFile

> <Tox>
1.900

> <CAS>
108-08-7

$$$$

  CDK

  7  6  0  0  0  0  0  0  0  0999 V2000
    4.6073   -1.9950    0.0000 C   0  0  0  0  0  0  0  0  0  0  0  0
    3.4555   -1.3315    0.0000 C   0  0  0  0  0  0  0  0  0  0  0  0
    3.4555   -0.0000    0.0000 O   0  0  0  0  0  0  0  0  0  0  0  0
    2.3037   -1.9950    0.0000 C   0  0  0  0  0  0  0  0  0  0  0  0
    1.1518   -1.3315    0.0000 C   0  0  0  0  0  0  0  0  0  0  0  0
    0.0000   -1.9950    0.0000 C   0  0  0  0  0  0  0  0  0  0  0  0
    1.1518   -0.0000    0.0000 C   0  0  0  0  0  0  0  0  0  0  0  0
  1  2  1  0  0  0  0 
  2  3  2  0  0  0  0 
  2  4  1  0  0  0  0 
  4  5  1  0  0  0  0 
  5  6  1  0  0  0  0 
  5  7  1  0  0  0  0 
M  END
> <Name>
4-METHYL-2-PENTANONE

> <Source>
DSSTox2DMolFile

> <Tox>
1.299

> <CAS>
108-10-1

$$$$

  CDK

  7  6  0  0  0  0  0  0  0  0999 V2000
    0.0000   -0.0000    0.0000 C   0  0  0  0  0  0  0  0  0  0  0  0
    1.1545   -0.6604    0.0000 C   0  0  0  0  0  0  0  0  0  0  0  0
    2.3090   -0.0000    0.0000 C   0  0  0  0  0  0  0  0  0  0  0  0
    1.1545   -1.9903    0.0000 O   0  0  0  0  0  0  0  0  0  0  0  0
    3.4635   -0.6604    0.0000 C   0  0  0  0  0  0  0  0  0  0  0  0
    4.6180   -0.0000    0.0000 C   0  0  0  0  0  0  0  0  0  0  0  0
    3.4635   -1.9903    0.0000 C   0  0  0  0  0  0  0  0  0  0  0  0
  1  2  1  0  0  0  0 
  2  3  1  0  0  0  0 
  2  4  1  0  0  0  0 
  3  5  1  0  0  0  0 
  5  6  1  0  0  0  0 
  5  7  1  0  0  0  0 
M  END
> <Name>
4-METHYL-2-PENTANOL

> <Source>
DSSTox2DMolFile

> <Tox>
0.724

> <CAS>
108-11-2

$$$$

  CDK

  7  6  0  0  0  0  0  0  0  0999 V2000
    3.4555   -0.0000    0.0000 C   0  0  0  0  0  0  0  0  0  0  0  0
    3.4555   -1.3315    0.0000 C   0  0  0  0  0  0  0  0  0  0  0  0
    4.6073   -1.9950    0.0000 C   0  0  0  0  0  0  0  0  0  0  0  0
    2.3037   -1.9950    0.0000 O   0  0  0  0  0  0  0  0  0  0  0  0
    1.1518   -1.3315    0.0000 C   0  0  0  0  0  0  0  0  0  0  0  0
    0.0000   -1.9950    0.0000 C   0  0  0  0  0  0  0  0  0  0  0  0
    1.1518   -0.0000    0.0000 C   0  0  0  0  0  0  0  0  0  0  0  0
  1  2  1  0  0  0  0 
  2  3  1  0  0  0  0 
  2  4  1  0  0  0  0 
  4  5  1  0  0  0  0 
  5  6  1  0  0  0  0 
  5  7  1  0  0  0  0 
M  END
> <Name>
DI-ISOPROPYL ETHER

> <Source>
DSSTox2DMolFile

> <Tox>
2.173

> <CAS>
108-20-3

$$$$

  CDK

  7  6  0  0  0  0  0  0  0  0999 V2000
    3.4577   -1.3334    0.0000 C   0  0  0  0  0  0  0  0  0  0  0  0
    3.4577   -0.0000    0.0000 O   0  0  0  0  0  0  0  0  0  0  0  0
    2.2990   -1.9955    0.0000 O   0  0  0  0  0  0  0  0  0  0  0  0
    4.5980   -1.9955    0.0000 Cl  0  0  0  0  0  0  0  0  0  0  0  0
    1.1587   -1.3334    0.0000 C   0  0  0  0  0  0  0  0  0  0  0  0
    0.0000   -2.0093    0.0000 C   0  0  0  0  0  0  0  0  0  0  0  0
    1.1587   -0.0000    0.0000 C   0  0  0  0  0  0  0  0  0  0  0  0
  1  2  2  0  0  0  0 
  1  3  1  0  0  0  0 
  1  4  1  0  0  0  0 
  3  5  1  0  0  0  0 
  5  6  1  0  0  0  0 
  5  7  1  0  0  0  0 
M  END
> <Name>
ISOPROPYL CHLOROFORMATE

> <Source>
DSSTox2DMolFile

> <Tox>
1.568

> <CAS>
108-23-6

$$$$

  CDK

  7  6  0  0  0  0  0  0  0  0999 V2000
    3.4555   -0.0000    0.0000 O   0  0  0  0  0  0  0  0  0  0  0  0
    3.4555   -1.3315    0.0000 C   0  0  0  0  0  0  0  0  0  0  0  0
    2.3037   -1.9950    0.0000 O   0  0  0  0  0  0  0  0  0  0  0  0
    4.6073   -1.9950    0.0000 C   0  0  0  0  0  0  0  0  0  0  0  0
    1.1518   -1.3315    0.0000 C   0  0  0  0  0  0  0  0  0  0  0  0
    1.1518   -0.0000    0.0000 O   0  0  0  0  0  0  0  0  0  0  0  0
    0.0000   -1.9950    0.0000 C   0  0  0  0  0  0  0  0  0  0  0  0
  1  2  2  0  0  0  0 
  2  3  1  0  0  0  0 
  2  4  1  0  0  0  0 
  3  5  1  0  0  0  0 
  5  6  2  0  0  0  0 
  5  7  1  0  0  0  0 
M  END
> <Name>
ACETIC ANHYDRIDE

> <Source>
DSSTox2DMolFile

> <Tox>
0.708

> <CAS>
108-24-7

$$$$

  CDK

  7  7  0  0  0  0  0  0  0  0999 V2000
   -0.0929    0.9103   -0.3497 O   0  0  0  0  0  0  0  0  0  0  0  0
   -1.1210    0.0921    0.0385 C   0  0  0  0  0  0  0  0  0  0  0  0
    1.1275    0.1516   -0.4536 C   0  0  0  0  0  0  0  0  0  0  0  0
   -0.6899   -1.3460    0.2103 C   0  0  0  0  0  0  0  0  0  0  0  0
   -2.1829    0.6533    0.1647 O   0  0  0  0  0  0  0  0  0  0  0  0
    0.7929   -1.3267   -0.1500 C   0  0  0  0  0  0  0  0  0  0  0  0
    2.1631    0.7224    0.5016 C   0  0  0  0  0  0  0  0  0  0  0  0
  1  2  1  0  0  0  0 
  1  3  1  0  0  0  0 
  2  4  1  0  0  0  0 
  2  5  2  0  0  0  0 
  6  3  1  0  0  0  0 
  3  7  1  0  0  0  0 
  4  6  1  0  0  0  0 
M  END
> <Name>
gamma-Valerolactone

> <Source>
DougDB3DMolFile

> <Tox>
-0.413

> <CAS>
108-29-2

$$$$

  CDK

  7  7  0  0  0  0  0  0  0  0999 V2000
    4.4520   -2.5243    0.0000 O   0  0  0  0  0  0  0  0  0  0  0  0
    3.3746   -1.7407    0.0000 C   0  0  0  0  0  0  0  0  0  0  0  0
    2.1102   -2.1548    0.0000 O   0  0  0  0  0  0  0  0  0  0  0  0
    3.3746   -0.4140    0.0000 C   0  0  0  0  0  0  0  0  0  0  0  0
    1.3311   -1.0774    0.0000 C   0  0  0  0  0  0  0  0  0  0  0  0
    2.1102   -0.0000    0.0000 C   0  0  0  0  0  0  0  0  0  0  0  0
    0.0000   -1.0774    0.0000 O   0  0  0  0  0  0  0  0  0  0  0  0
  1  2  2  0  0  0  0 
  2  3  1  0  0  0  0 
  2  4  1  0  0  0  0 
  3  5  1  0  0  0  0 
  6  4  1  0  0  0  0 
  5  7  2  0  0  0  0 
  5  6  1  0  0  0  0 
M  END
> <Name>
SUCCINIC ANHYDRIDE

> <Source>
DSSTox2DMolFile

> <Tox>
-2.824

> <CAS>
108-30-5

$$$$

  CDK

  7  7  0  0  0  0  0  0  0  0999 V2000
    2.3465   -0.0000    0.0000 O   0  0  0  0  0  0  0  0  0  0  0  0
    3.4277   -0.7885    0.0000 C   0  0  0  0  0  0  0  0  0  0  0  0
    1.2795   -0.7601    0.0000 C   0  0  0  0  0  0  0  0  0  0  0  0
    3.0075   -2.0302    0.0000 C   0  0  0  0  0  0  0  0  0  0  0  0
    4.7214   -0.4060    0.0000 O   0  0  0  0  0  0  0  0  0  0  0  0
    1.6903   -2.0302    0.0000 C   0  0  0  0  0  0  0  0  0  0  0  0
    0.0000   -0.3305    0.0000 O   0  0  0  0  0  0  0  0  0  0  0  0
  1  2  1  0  0  0  0 
  1  3  1  0  0  0  0 
  2  4  1  0  0  0  0 
  2  5  2  0  0  0  0 
  3  6  1  0  0  0  0 
  3  7  2  0  0  0  0 
  4  6  2  0  0  0  0 
M  END
> <Name>
MALEIC ANHYDRIDE

> <Source>
DSSTox2DMolFile

> <Tox>
-0.602

> <CAS>
108-31-6

$$$$

  CDK

  7  7  0  0  0  0  0  0  0  0999 V2000
    0.0000   -2.1140    0.0000 O   0  0  0  0  0  0  0  0  0  0  0  0
    1.0726   -1.3129    0.0000 C   0  0  0  0  0  0  0  0  0  0  0  0
    0.4184   -3.3602    0.0000 C   0  0  0  0  0  0  0  0  0  0  0  0
    2.1764   -2.1140    0.0000 O   0  0  0  0  0  0  0  0  0  0  0  0
    1.0726   -0.0000    0.0000 O   0  0  0  0  0  0  0  0  0  0  0  0
    1.7446   -3.3602    0.0000 C   0  0  0  0  0  0  0  0  0  0  0  0
    2.5146   -4.4506    0.0000 C   0  0  0  0  0  0  0  0  0  0  0  0
  1  2  1  0  0  0  0 
  1  3  1  0  0  0  0 
  2  4  1  0  0  0  0 
  2  5  2  0  0  0  0 
  6  3  1  0  0  0  0 
  4  6  1  0  0  0  0 
  6  7  1  0  0  0  0 
M  END
> <Name>
PROPYLENE CARBONATE

> <Source>
DSSTox2DMolFile

> <Tox>
-1.347

> <CAS>
108-32-7

$$$$

  CDK

  8  8  0  0  0  0  0  0  0  0999 V2000
    0.0000    1.7462    0.0000 Br  0  0  0  0  0  0  0  0  0  0  0  0
    0.9978    1.7462    0.0000 C   0  0  0  0  0  0  0  0  0  0  0  0
    1.4967    0.8481    0.0000 C   0  0  0  0  0  0  0  0  0  0  0  0
    1.4967    2.5943    0.0000 C   0  0  0  0  0  0  0  0  0  0  0  0
    2.4945    0.8481    0.0000 C   0  0  0  0  0  0  0  0  0  0  0  0
    2.4945    2.5943    0.0000 C   0  0  0  0  0  0  0  0  0  0  0  0
    2.9934    0.0000    0.0000 Br  0  0  0  0  0  0  0  0  0  0  0  0
    2.9934    1.7462    0.0000 C   0  0  0  0  0  0  0  0  0  0  0  0
  1  2  1  0  0  0  0 
  2  3  2  0  0  0  0 
  4  2  1  0  0  0  0 
  3  5  1  0  0  0  0 
  6  4  2  0  0  0  0 
  5  7  1  0  0  0  0 
  5  8  2  0  0  0  0 
  8  6  1  0  0  0  0 
M  END
> <Name>
M-DIBROMOBENZENE

> <Source>
NIST2DMolFile

> <Tox>
-0.570

> <CAS>
108-36-1

$$$$

  CDK

  8  8  0  0  0  0  0  0  0  0999 V2000
    1.4709    2.4346    0.0000 C   0  0  0  0  0  0  0  0  0  0  0  0
    1.0144    1.6231    0.0000 C   0  0  0  0  0  0  0  0  0  0  0  0
    2.4853    2.4346    0.0000 C   0  0  0  0  0  0  0  0  0  0  0  0
    1.4709    0.7101    0.0000 C   0  0  0  0  0  0  0  0  0  0  0  0
    0.0000    1.6231    0.0000 C   0  0  0  0  0  0  0  0  0  0  0  0
    2.9925    1.5723    0.0000 C   0  0  0  0  0  0  0  0  0  0  0  0
    2.4853    0.7101    0.0000 C   0  0  0  0  0  0  0  0  0  0  0  0
    3.1954    0.0000    0.0000 S   0  0  0  0  0  0  0  0  0  0  0  0
  1  2  2  0  0  0  0 
  3  1  1  0  0  0  0 
  2  4  1  0  0  0  0 
  2  5  1  0  0  0  0 
  6  3  2  0  0  0  0 
  4  7  2  0  0  0  0 
  7  6  1  0  0  0  0 
  7  8  1  0  0  0  0 
M  END
> <Name>
3-METHYLBENZENETHIOL

> <Source>
NIST2DMolFile

> <Tox>
-0.257

> <CAS>
108-40-7

$$$$

  CDK

  8  8  0  0  0  0  0  0  0  0999 V2000
    1.4800    2.5517    0.0000 C   0  0  0  0  0  0  0  0  0  0  0  0
    0.9696    1.6841    0.0000 C   0  0  0  0  0  0  0  0  0  0  0  0
    2.5006    2.5517    0.0000 C   0  0  0  0  0  0  0  0  0  0  0  0
    1.4800    0.8165    0.0000 C   0  0  0  0  0  0  0  0  0  0  0  0
    0.0000    1.6841    0.0000 C   0  0  0  0  0  0  0  0  0  0  0  0
    3.0110    1.6841    0.0000 C   0  0  0  0  0  0  0  0  0  0  0  0
    2.5006    0.8165    0.0000 C   0  0  0  0  0  0  0  0  0  0  0  0
    3.0110    0.0000    0.0000 Cl  0  0  0  0  0  0  0  0  0  0  0  0
  1  2  2  0  0  0  0 
  3  1  1  0  0  0  0 
  2  4  1  0  0  0  0 
  2  5  1  0  0  0  0 
  6  3  2  0  0  0  0 
  4  7  2  0  0  0  0 
  7  6  1  0  0  0  0 
  7  8  1  0  0  0  0 
M  END
> <Name>
M-CHLOROTOLUENE

> <Source>
NIST2DMolFile

> <Tox>
0.566

> <CAS>
108-41-8

$$$$

  CDK

  8  8  0  0  0  0  0  0  0  0999 V2000
    0.0000   -2.6588    0.0000 Cl  0  0  0  0  0  0  0  0  0  0  0  0
    1.1520   -1.9953    0.0000 C   0  0  0  0  0  0  0  0  0  0  0  0
    1.1520   -0.6635    0.0000 C   0  0  0  0  0  0  0  0  0  0  0  0
    2.3040   -2.6588    0.0000 C   0  0  0  0  0  0  0  0  0  0  0  0
    2.3040   -0.0000    0.0000 C   0  0  0  0  0  0  0  0  0  0  0  0
    3.4560   -1.9953    0.0000 C   0  0  0  0  0  0  0  0  0  0  0  0
    3.4560   -0.6635    0.0000 C   0  0  0  0  0  0  0  0  0  0  0  0
    4.6080   -2.6588    0.0000 N   0  0  0  0  0  0  0  0  0  0  0  0
  1  2  1  0  0  0  0 
  2  3  2  0  0  0  0 
  2  4  1  0  0  0  0 
  3  5  1  0  0  0  0 
  6  4  2  0  0  0  0 
  5  7  2  0  0  0  0 
  7  6  1  0  0  0  0 
  6  8  1  0  0  0  0 
M  END
> <Name>
3-CHLOROANILINE

> <Source>
DSSTox2DMolFile

> <Tox>
-1.180

> <CAS>
108-42-9

$$$$

  CDK

  8  8  0  0  0  0  0  0  0  0999 V2000
    0.0000   -2.6588    0.0000 Cl  0  0  0  0  0  0  0  0  0  0  0  0
    1.1520   -1.9953    0.0000 C   0  0  0  0  0  0  0  0  0  0  0  0
    1.1520   -0.6635    0.0000 C   0  0  0  0  0  0  0  0  0  0  0  0
    2.3040   -2.6588    0.0000 C   0  0  0  0  0  0  0  0  0  0  0  0
    2.3040   -0.0000    0.0000 C   0  0  0  0  0  0  0  0  0  0  0  0
    3.4560   -1.9953    0.0000 C   0  0  0  0  0  0  0  0  0  0  0  0
    3.4560   -0.6635    0.0000 C   0  0  0  0  0  0  0  0  0  0  0  0
    4.6080   -2.6588    0.0000 O   0  0  0  0  0  0  0  0  0  0  0  0
  1  2  1  0  0  0  0 
  2  3  2  0  0  0  0 
  2  4  1  0  0  0  0 
  3  5  1  0  0  0  0 
  6  4  2  0  0  0  0 
  5  7  2  0  0  0  0 
  7  6  1  0  0  0  0 
  6  8  1  0  0  0  0 
M  END
> <Name>
3-CHLOROPHENOL

> <Source>
DSSTox2DMolFile

> <Tox>
-0.903

> <CAS>
108-43-0

$$$$

  CDK

  8  8  0  0  0  0  0  0  0  0999 V2000
    2.3043   -1.3275    0.0000 C   0  0  0  0  0  0  0  0  0  0  0  0
    3.4564   -1.9853    0.0000 C   0  0  0  0  0  0  0  0  0  0  0  0
    1.1521   -1.9853    0.0000 C   0  0  0  0  0  0  0  0  0  0  0  0
    2.3043   -0.0000    0.0000 N   0  0  0  0  0  0  0  0  0  0  0  0
    3.4564   -3.3129    0.0000 C   0  0  0  0  0  0  0  0  0  0  0  0
    1.1521   -3.3129    0.0000 C   0  0  0  0  0  0  0  0  0  0  0  0
    2.3043   -3.9866    0.0000 C   0  0  0  0  0  0  0  0  0  0  0  0
    0.0000   -3.9866    0.0000 C   0  0  0  0  0  0  0  0  0  0  0  0
  1  2  2  0  0  0  0 
  1  3  1  0  0  0  0 
  1  4  1  0  0  0  0 
  2  5  1  0  0  0  0 
  6  3  2  0  0  0  0 
  5  7  2  0  0  0  0 
  7  6  1  0  0  0  0 
  6  8  1  0  0  0  0 
M  END
> <Name>
M-TOLUIDINE

> <Source>
DSSTox2DMolFile

> <Tox>
-0.519

> <CAS>
108-44-1

$$$$

  CDK

  8  8  0  0  0  0  0  0  0  0999 V2000
    4.6080   -2.6588    0.0000 N   0  0  0  0  0  0  0  0  0  0  0  0
    3.4560   -1.9953    0.0000 C   0  0  0  0  0  0  0  0  0  0  0  0
    2.3040   -2.6588    0.0000 C   0  0  0  0  0  0  0  0  0  0  0  0
    3.4560   -0.6635    0.0000 C   0  0  0  0  0  0  0  0  0  0  0  0
    1.1520   -1.9953    0.0000 C   0  0  0  0  0  0  0  0  0  0  0  0
    2.3040   -0.0000    0.0000 C   0  0  0  0  0  0  0  0  0  0  0  0
    1.1520   -0.6635    0.0000 C   0  0  0  0  0  0  0  0  0  0  0  0
    0.0000   -2.6588    0.0000 N   0  0  0  0  0  0  0  0  0  0  0  0
  1  2  1  0  0  0  0 
  2  3  2  0  0  0  0 
  2  4  1  0  0  0  0 
  3  5  1  0  0  0  0 
  6  4  2  0  0  0  0 
  5  7  2  0  0  0  0 
  5  8  1  0  0  0  0 
  7  6  1  0  0  0  0 
M  END
> <Name>
1,3-BENZENEDIAMINE

> <Source>
DSSTox2DMolFile

> <Tox>
-2.680

> <CAS>
108-45-2

$$$$

  CDK

  8  8  0  0  0  0  0  0  0  0999 V2000
    4.6080   -2.6588    0.0000 O   0  0  0  0  0  0  0  0  0  0  0  0
    3.4560   -1.9953    0.0000 C   0  0  0  0  0  0  0  0  0  0  0  0
    2.3040   -2.6588    0.0000 C   0  0  0  0  0  0  0  0  0  0  0  0
    3.4560   -0.6635    0.0000 C   0  0  0  0  0  0  0  0  0  0  0  0
    1.1520   -1.9953    0.0000 C   0  0  0  0  0  0  0  0  0  0  0  0
    2.3040   -0.0000    0.0000 C   0  0  0  0  0  0  0  0  0  0  0  0
    1.1520   -0.6635    0.0000 C   0  0  0  0  0  0  0  0  0  0  0  0
    0.0000   -2.6588    0.0000 O   0  0  0  0  0  0  0  0  0  0  0  0
  1  2  1  0  0  0  0 
  2  3  2  0  0  0  0 
  2  4  1  0  0  0  0 
  3  5  1  0  0  0  0 
  6  4  2  0  0  0  0 
  5  7  2  0  0  0  0 
  5  8  1  0  0  0  0 
  7  6  1  0  0  0  0 
M  END
> <Name>
RESORCINOL

> <Source>
DSSTox2DMolFile

> <Tox>
-3.311

> <CAS>
108-46-3

$$$$

  CDK

  8  8  0  0  0  0  0  0  0  0999 V2000
   -1.1853   -0.3150   -0.0012 C   0  0  0  0  0  0  0  0  0  0  0  0
    0.0292   -1.0067    0.0041 C   0  0  0  0  0  0  0  0  0  0  0  0
   -1.2157    1.0478   -0.0045 N   0  0  0  0  0  0  0  0  0  0  0  0
   -2.4891   -1.0359    0.0000 C   0  0  0  0  0  0  0  0  0  0  0  0
    1.2293   -0.2919    0.0055 C   0  0  0  0  0  0  0  0  0  0  0  0
   -0.0574    1.7394   -0.0009 C   0  0  0  0  0  0  0  0  0  0  0  0
    1.1837    1.1020    0.0048 C   0  0  0  0  0  0  0  0  0  0  0  0
    2.5305   -1.0061   -0.0049 C   0  0  0  0  0  0  0  0  0  0  0  0
  1  2  1  0  0  0  0 
  1  3  2  0  0  0  0 
  1  4  1  0  0  0  0 
  2  5  2  0  0  0  0 
  6  3  1  0  0  0  0 
  5  7  1  0  0  0  0 
  5  8  1  0  0  0  0 
  7  6  2  0  0  0  0 
M  END
> <Name>
2,4-DIMETHYLPYRIDINE

> <Source>
DougDB3DMolFile

> <Tox>
0.501

> <CAS>
108-47-4

$$$$

  CDK

  8  8  0  0  0  0  0  0  0  0999 V2000
   -1.1764    0.2906   -0.0008 C   0  0  0  0  0  0  0  0  0  0  0  0
   -1.2013   -1.1093   -0.0001 C   0  0  0  0  0  0  0  0  0  0  0  0
    0.0001    0.9712   -0.0016 N   0  0  0  0  0  0  0  0  0  0  0  0
   -2.4350    1.0886    0.0009 C   0  0  0  0  0  0  0  0  0  0  0  0
   -0.0002   -1.8091    0.0004 C   0  0  0  0  0  0  0  0  0  0  0  0
    1.1765    0.2905   -0.0009 C   0  0  0  0  0  0  0  0  0  0  0  0
    1.2010   -1.1094    0.0001 C   0  0  0  0  0  0  0  0  0  0  0  0
    2.4353    1.0884    0.0008 C   0  0  0  0  0  0  0  0  0  0  0  0
  1  2  1  0  0  0  0 
  1  3  2  0  0  0  0 
  1  4  1  0  0  0  0 
  2  5  2  0  0  0  0 
  6  3  1  0  0  0  0 
  5  7  1  0  0  0  0 
  7  6  2  0  0  0  0 
  6  8  1  0  0  0  0 
M  END
> <Name>
2,6-LUTIDINE

> <Source>
DougDB3DMolFile

> <Tox>
0.752

> <CAS>
108-48-5

$$$$

  CDK

  8  8  0  0  0  0  0  0  0  0999 V2000
   -1.1922    0.3396    0.0358 C   0  0  0  0  0  0  0  0  0  0  0  0
   -1.2489   -1.1578    0.2052 C   0  0  0  0  0  0  0  0  0  0  0  0
   -2.1097    1.1207   -0.0534 O   0  0  0  0  0  0  0  0  0  0  0  0
    0.0004    1.0225   -0.0247 O   0  0  0  0  0  0  0  0  0  0  0  0
   -0.0004   -1.8236   -0.3452 C   0  0  0  0  0  0  0  0  0  0  0  0
    1.1926    0.3390    0.0359 C   0  0  0  0  0  0  0  0  0  0  0  0
    1.2478   -1.1583    0.2064 C   0  0  0  0  0  0  0  0  0  0  0  0
    2.1103    1.1198   -0.0541 O   0  0  0  0  0  0  0  0  0  0  0  0
  1  2  1  0  0  0  0 
  1  3  2  0  0  0  0 
  1  4  1  0  0  0  0 
  2  5  1  0  0  0  0 
  6  4  1  0  0  0  0 
  5  7  1  0  0  0  0 
  7  6  1  0  0  0  0 
  6  8  2  0  0  0  0 
M  END
> <Name>
GLUTARIC ANHYDRIDE

> <Source>
DougDB3DMolFile

> <Tox>
-2.523

> <CAS>
108-55-4

$$$$

  CDK

  9  8  0  0  0  0  0  0  0  0999 V2000
    2.3121   -1.3360    0.0000 C   0  0  0  0  0  0  0  0  0  0  0  0
    3.4681   -1.9936    0.0000 C   0  0  0  0  0  0  0  0  0  0  0  0
    1.1560   -1.9936    0.0000 O   0  0  0  0  0  0  0  0  0  0  0  0
    2.3121   -0.0000    0.0000 O   0  0  0  0  0  0  0  0  0  0  0  0
    4.6103   -1.3360    0.0000 C   0  0  0  0  0  0  0  0  0  0  0  0
    0.0000   -1.3360    0.0000 C   0  0  0  0  0  0  0  0  0  0  0  0
    5.7663   -1.9936    0.0000 O   0  0  0  0  0  0  0  0  0  0  0  0
    4.6103   -0.0000    0.0000 O   0  0  0  0  0  0  0  0  0  0  0  0
    6.9224   -1.3360    0.0000 C   0  0  0  0  0  0  0  0  0  0  0  0
  1  2  1  0  0  0  0 
  1  3  1  0  0  0  0 
  1  4  2  0  0  0  0 
  2  5  1  0  0  0  0 
  3  6  1  0  0  0  0 
  5  7  1  0  0  0  0 
  5  8  2  0  0  0  0 
  7  9  1  0  0  0  0 
M  END
> <Name>
PROPANEDIOIC ACID, DIMETHYL ESTER

> <Source>
DSSTox2DMolFile

> <Tox>
-0.046

> <CAS>
108-59-8

$$$$

  CDK

  9  8  0  0  0  0  0  0  0  0999 V2000
    5.1742    2.6371    1.7257 C   0  0  0  0  0  0  0  0  0  0  0  0
    3.9312    1.9066    1.2679 C   0  0  0  0  0  0  0  0  0  0  0  0
    6.4504    2.0804    1.0929 C   0  0  0  0  0  0  0  0  0  0  0  0
    3.0197    1.7477    2.2704 O   0  0  0  0  0  0  0  0  0  0  0  0
    3.6682    1.4898    0.1564 O   0  0  0  0  0  0  0  0  0  0  0  0
    6.8309    0.7497    1.7208 C   0  0  0  0  0  0  0  0  0  0  0  0
    7.5829    3.0818    1.2600 C   0  0  0  0  0  0  0  0  0  0  0  0
    1.7803    1.1021    1.9728 C   0  0  0  0  0  0  0  0  0  0  0  0
    0.9628    1.1297    3.2499 C   0  0  0  0  0  0  0  0  0  0  0  0
  1  2  1  0  0  0  0 
  1  3  1  0  0  0  0 
  2  4  1  0  0  0  0 
  2  5  2  0  0  0  0 
  3  6  1  0  0  0  0 
  3  7  1  0  0  0  0 
  4  8  1  0  0  0  0 
  8  9  1  0  0  0  0 
M  END
> <Name>
ETHYL ISOVALERATE

> <Source>
NIST3DMolFile

> <Tox>
0.919

> <CAS>
108-64-5

$$$$

  CDK

  9  8  0  0  0  0  0  0  0  0999 V2000
    2.3031   -1.9997    0.0000 C   0  0  0  0  0  0  0  0  0  0  0  0
    3.4546   -1.3308    0.0000 C   0  0  0  0  0  0  0  0  0  0  0  0
    1.1515   -1.3308    0.0000 O   0  0  0  0  0  0  0  0  0  0  0  0
    3.4546   -0.0000    0.0000 C   0  0  0  0  0  0  0  0  0  0  0  0
    4.6062   -1.9997    0.0000 O   0  0  0  0  0  0  0  0  0  0  0  0
    0.0000   -1.9997    0.0000 C   0  0  0  0  0  0  0  0  0  0  0  0
    5.7577   -1.3308    0.0000 C   0  0  0  0  0  0  0  0  0  0  0  0
    5.7577   -0.0000    0.0000 O   0  0  0  0  0  0  0  0  0  0  0  0
    6.8955   -1.9997    0.0000 C   0  0  0  0  0  0  0  0  0  0  0  0
  1  2  1  0  0  0  0 
  1  3  1  0  0  0  0 
  2  4  1  0  0  0  0 
  2  5  1  0  0  0  0 
  3  6  1  0  0  0  0 
  5  7  1  0  0  0  0 
  7  8  2  0  0  0  0 
  7  9  1  0  0  0  0 
M  END
> <Name>
PROPYLENE GLYCOL ME ETHER ACETATE

> <Source>
DSSTox2DMolFile

> <Tox>
0.593

> <CAS>
108-65-6

$$$$

  CDK

  9  9  0  0  0  0  0  0  0  0999 V2000
    2.2915   -1.3344    0.0000 C   0  0  0  0  0  0  0  0  0  0  0  0
    3.4465   -1.9878    0.0000 C   0  0  0  0  0  0  0  0  0  0  0  0
    1.1550   -1.9878    0.0000 C   0  0  0  0  0  0  0  0  0  0  0  0
    2.2915   -0.0000    0.0000 C   0  0  0  0  0  0  0  0  0  0  0  0
    3.4465   -3.3223    0.0000 C   0  0  0  0  0  0  0  0  0  0  0  0
    1.1550   -3.3223    0.0000 C   0  0  0  0  0  0  0  0  0  0  0  0
    2.2915   -3.9941    0.0000 C   0  0  0  0  0  0  0  0  0  0  0  0
    4.6015   -3.9941    0.0000 C   0  0  0  0  0  0  0  0  0  0  0  0
    0.0000   -3.9941    0.0000 C   0  0  0  0  0  0  0  0  0  0  0  0
  1  2  2  0  0  0  0 
  1  3  1  0  0  0  0 
  1  4  1  0  0  0  0 
  2  5  1  0  0  0  0 
  6  3  2  0  0  0  0 
  5  7  2  0  0  0  0 
  5  8  1  0  0  0  0 
  7  6  1  0  0  0  0 
  6  9  1  0  0  0  0 
M  END
> <Name>
1,3,5-TRIMETHYLBENZENE

> <Source>
DSSTox2DMolFile

> <Tox>
0.394

> <CAS>
108-67-8

$$$$

  CDK

  9  9  0  0  0  0  0  0  0  0999 V2000
    0.0000   -2.3037    0.0000 C   0  0  0  0  0  0  0  0  0  0  0  0
    1.3315   -2.3037    0.0000 C   0  0  0  0  0  0  0  0  0  0  0  0
    1.9950   -1.1518    0.0000 C   0  0  0  0  0  0  0  0  0  0  0  0
    1.9950   -3.4555    0.0000 C   0  0  0  0  0  0  0  0  0  0  0  0
    3.3265   -1.1518    0.0000 C   0  0  0  0  0  0  0  0  0  0  0  0
    3.3265   -3.4555    0.0000 C   0  0  0  0  0  0  0  0  0  0  0  0
    3.9899   -0.0000    0.0000 C   0  0  0  0  0  0  0  0  0  0  0  0
    3.9899   -2.3037    0.0000 C   0  0  0  0  0  0  0  0  0  0  0  0
    3.9899   -4.6073    0.0000 O   0  0  0  0  0  0  0  0  0  0  0  0
  1  2  1  0  0  0  0 
  2  3  2  0  0  0  0 
  2  4  1  0  0  0  0 
  3  5  1  0  0  0  0 
  6  4  2  0  0  0  0 
  5  7  1  0  0  0  0 
  5  8  2  0  0  0  0 
  8  6  1  0  0  0  0 
  6  9  1  0  0  0  0 
M  END
> <Name>
3,5-DIMETHYLPHENOL

> <Source>
DSSTox2DMolFile

> <Tox>
-1.393

> <CAS>
108-68-9

$$$$

  CDK

  9  9  0  0  0  0  0  0  0  0999 V2000
    1.3315   -2.3037    0.0000 C   0  0  0  0  0  0  0  0  0  0  0  0
    1.9950   -1.1518    0.0000 C   0  0  0  0  0  0  0  0  0  0  0  0
    1.9950   -3.4555    0.0000 C   0  0  0  0  0  0  0  0  0  0  0  0
    0.0000   -2.3037    0.0000 Cl  0  0  0  0  0  0  0  0  0  0  0  0
    3.3265   -1.1518    0.0000 C   0  0  0  0  0  0  0  0  0  0  0  0
    3.3265   -3.4555    0.0000 C   0  0  0  0  0  0  0  0  0  0  0  0
    3.9899   -2.3037    0.0000 C   0  0  0  0  0  0  0  0  0  0  0  0
    3.9899   -0.0000    0.0000 Cl  0  0  0  0  0  0  0  0  0  0  0  0
    3.9899   -4.6073    0.0000 Cl  0  0  0  0  0  0  0  0  0  0  0  0
  1  2  2  0  0  0  0 
  1  3  1  0  0  0  0 
  1  4  1  0  0  0  0 
  2  5  1  0  0  0  0 
  6  3  2  0  0  0  0 
  5  7  2  0  0  0  0 
  5  8  1  0  0  0  0 
  7  6  1  0  0  0  0 
  6  9  1  0  0  0  0 
M  END
> <Name>
1,3,5-TRICHLOROBENZENE

> <Source>
DSSTox2DMolFile

> <Tox>
-0.620

> <CAS>
108-70-3

$$$$

  CDK

  9  9  0  0  0  0  0  0  0  0999 V2000
    0.6915    1.1726   -0.0009 C   0  0  0  0  0  0  0  0  0  0  0  0
   -0.7071    1.2058   -0.0048 C   0  0  0  0  0  0  0  0  0  0  0  0
    1.3683   -0.0061    0.0009 N   0  0  0  0  0  0  0  0  0  0  0  0
    1.4948    2.4282    0.0024 C   0  0  0  0  0  0  0  0  0  0  0  0
   -1.4201    0.0069   -0.0052 C   0  0  0  0  0  0  0  0  0  0  0  0
    0.6807   -1.1786   -0.0011 C   0  0  0  0  0  0  0  0  0  0  0  0
   -0.7179   -1.1986   -0.0048 C   0  0  0  0  0  0  0  0  0  0  0  0
   -2.9047    0.0120    0.0057 C   0  0  0  0  0  0  0  0  0  0  0  0
    1.4724   -2.4416    0.0024 C   0  0  0  0  0  0  0  0  0  0  0  0
  1  2  1  0  0  0  0 
  1  3  2  0  0  0  0 
  1  4  1  0  0  0  0 
  2  5  2  0  0  0  0 
  6  3  1  0  0  0  0 
  5  7  1  0  0  0  0 
  5  8  1  0  0  0  0 
  7  6  2  0  0  0  0 
  6  9  1  0  0  0  0 
M  END
> <Name>
2,4,6-COLLIDINE

> <Source>
DougDB3DMolFile

> <Tox>
0.299

> <CAS>
108-75-8

$$$$

  CDK

 10  9  0  0  0  0  0  0  0  0999 V2000
    0.0000   -0.0000    0.0000 C   0  0  0  0  0  0  0  0  0  0  0  0
    1.1741   -0.6837    0.0000 C   0  0  0  0  0  0  0  0  0  0  0  0
    2.2999   -0.0000    0.0000 C   0  0  0  0  0  0  0  0  0  0  0  0
    1.1741   -1.9960    0.0000 C   0  0  0  0  0  0  0  0  0  0  0  0
    3.4533   -0.6837    0.0000 C   0  0  0  0  0  0  0  0  0  0  0  0
    4.6274   -0.0000    0.0000 C   0  0  0  0  0  0  0  0  0  0  0  0
    3.4533   -1.9960    0.0000 O   0  0  0  0  0  0  0  0  0  0  0  0
    5.7807   -0.6837    0.0000 C   0  0  0  0  0  0  0  0  0  0  0  0
    6.9065   -0.0000    0.0000 C   0  0  0  0  0  0  0  0  0  0  0  0
    5.7807   -1.9960    0.0000 C   0  0  0  0  0  0  0  0  0  0  0  0
  1  2  1  0  0  0  0 
  2  3  1  0  0  0  0 
  2  4  1  0  0  0  0 
  3  5  1  0  0  0  0 
  5  6  1  0  0  0  0 
  5  7  1  0  0  0  0 
  6  8  1  0  0  0  0 
  8  9  1  0  0  0  0 
  8 10  1  0  0  0  0 
M  END
> <Name>
2,6-DIMETHYL-4-HEPTANOL

> <Source>
DSSTox2DMolFile

> <Tox>
-0.519

> <CAS>
108-82-7

$$$$

  CDK

 10  9  0  0  0  0  0  0  0  0999 V2000
    3.4535   -0.0000    0.0000 O   0  0  0  0  0  0  0  0  0  0  0  0
    3.4535   -1.3330    0.0000 C   0  0  0  0  0  0  0  0  0  0  0  0
    4.6070   -1.9961    0.0000 C   0  0  0  0  0  0  0  0  0  0  0  0
    2.3000   -1.9961    0.0000 C   0  0  0  0  0  0  0  0  0  0  0  0
    5.7535   -1.3330    0.0000 C   0  0  0  0  0  0  0  0  0  0  0  0
    1.1535   -1.3330    0.0000 C   0  0  0  0  0  0  0  0  0  0  0  0
    5.7535   -0.0000    0.0000 C   0  0  0  0  0  0  0  0  0  0  0  0
    6.9070   -1.9961    0.0000 C   0  0  0  0  0  0  0  0  0  0  0  0
    0.0000   -1.9961    0.0000 C   0  0  0  0  0  0  0  0  0  0  0  0
    1.1535   -0.0000    0.0000 C   0  0  0  0  0  0  0  0  0  0  0  0
  1  2  2  0  0  0  0 
  2  3  1  0  0  0  0 
  2  4  1  0  0  0  0 
  3  5  1  0  0  0  0 
  4  6  1  0  0  0  0 
  5  7  1  0  0  0  0 
  5  8  1  0  0  0  0 
  6  9  1  0  0  0  0 
  6 10  1  0  0  0  0 
M  END
> <Name>
2,6-DIMETHYL-4-HEPTANONE

> <Source>
DSSTox2DMolFile

> <Tox>
0.217

> <CAS>
108-83-8

$$$$

  CDK

  7  7  0  0  0  0  0  0  0  0999 V2000
    5.2093    2.1560    1.0595 C   0  0  0  0  0  0  0  0  0  0  0  0
    3.8868    2.2400    1.8005 C   0  0  0  0  0  0  0  0  0  0  0  0
    3.1600    0.8958    1.7596 C   0  0  0  0  0  0  0  0  0  0  0  0
    3.0005    3.3325    1.2030 C   0  0  0  0  0  0  0  0  0  0  0  0
    1.8277    0.9747    2.4883 C   0  0  0  0  0  0  0  0  0  0  0  0
    1.6679    3.4122    1.9306 C   0  0  0  0  0  0  0  0  0  0  0  0
    0.9506    2.0714    1.9050 C   0  0  0  0  0  0  0  0  0  0  0  0
  1  2  1  0  0  0  0 
  2  3  1  0  0  0  0 
  4  2  1  0  0  0  0 
  3  5  1  0  0  0  0 
  6  4  1  0  0  0  0 
  5  7  1  0  0  0  0 
  7  6  1  0  0  0  0 
M  END
> <Name>
1-METHYLCYCLOHEXANE

> <Source>
NIST3DMolFile

> <Tox>
1.663

> <CAS>
108-87-2

$$$$

  CDK

  7  7  0  0  0  0  0  0  0  0999 V2000
    0.0000   -1.1527    0.0000 C   0  0  0  0  0  0  0  0  0  0  0  0
    1.3282   -1.1527    0.0000 C   0  0  0  0  0  0  0  0  0  0  0  0
    2.0023   -0.0000    0.0000 C   0  0  0  0  0  0  0  0  0  0  0  0
    2.0023   -2.3054    0.0000 C   0  0  0  0  0  0  0  0  0  0  0  0
    3.3305   -0.0000    0.0000 C   0  0  0  0  0  0  0  0  0  0  0  0
    3.3305   -2.3054    0.0000 C   0  0  0  0  0  0  0  0  0  0  0  0
    3.9886   -1.1527    0.0000 C   0  0  0  0  0  0  0  0  0  0  0  0
  1  2  1  0  0  0  0 
  2  3  2  0  0  0  0 
  2  4  1  0  0  0  0 
  3  5  1  0  0  0  0 
  6  4  2  0  0  0  0 
  5  7  2  0  0  0  0 
  7  6  1  0  0  0  0 
M  END
> <Name>
TOLUENE

> <Source>
DSSTox2DMolFile

> <Tox>
1.453

> <CAS>
108-88-3

$$$$

  CDK

  7  7  0  0  0  0  0  0  0  0999 V2000
    3.9916   -1.1496    0.0000 N   0  0  0  0  0  0  0  0  0  0  0  0
    3.3250   -2.3032    0.0000 C   0  0  0  0  0  0  0  0  0  0  0  0
    3.3250   -0.0000    0.0000 C   0  0  0  0  0  0  0  0  0  0  0  0
    1.9958   -2.3032    0.0000 C   0  0  0  0  0  0  0  0  0  0  0  0
    1.9958   -0.0000    0.0000 C   0  0  0  0  0  0  0  0  0  0  0  0
    1.3292   -1.1496    0.0000 C   0  0  0  0  0  0  0  0  0  0  0  0
    0.0000   -1.1496    0.0000 C   0  0  0  0  0  0  0  0  0  0  0  0
  1  2  2  0  0  0  0 
  1  3  1  0  0  0  0 
  2  4  1  0  0  0  0 
  5  3  2  0  0  0  0 
  4  6  2  0  0  0  0 
  6  5  1  0  0  0  0 
  6  7  1  0  0  0  0 
M  END
> <Name>
4-METHYLPYRIDINE

> <Source>
DSSTox2DMolFile

> <Tox>
0.761

> <CAS>
108-89-4

$$$$

  CDK

  7  7  0  0  0  0  0  0  0  0999 V2000
    0.0000   -1.1496    0.0000 Cl  0  0  0  0  0  0  0  0  0  0  0  0
    1.3292   -1.1496    0.0000 C   0  0  0  0  0  0  0  0  0  0  0  0
    1.9958   -0.0000    0.0000 C   0  0  0  0  0  0  0  0  0  0  0  0
    1.9958   -2.3032    0.0000 C   0  0  0  0  0  0  0  0  0  0  0  0
    3.3250   -0.0000    0.0000 C   0  0  0  0  0  0  0  0  0  0  0  0
    3.3250   -2.3032    0.0000 C   0  0  0  0  0  0  0  0  0  0  0  0
    3.9916   -1.1496    0.0000 C   0  0  0  0  0  0  0  0  0  0  0  0
  1  2  1  0  0  0  0 
  2  3  2  0  0  0  0 
  2  4  1  0  0  0  0 
  3  5  1  0  0  0  0 
  6  4  2  0  0  0  0 
  5  7  2  0  0  0  0 
  7  6  1  0  0  0  0 
M  END
> <Name>
CHLOROBENZENE

> <Source>
DSSTox2DMolFile

> <Tox>
1.079

> <CAS>
108-90-7

$$$$

  CDK

  7  7  0  0  0  0  0  0  0  0999 V2000
    0.0000   -1.1527    0.0000 N   0  0  0  0  0  0  0  0  0  0  0  0
    1.3282   -1.1527    0.0000 C   0  0  0  0  0  0  0  0  0  0  0  0
    2.0023   -2.3054    0.0000 C   0  0  0  0  0  0  0  0  0  0  0  0
    2.0023   -0.0000    0.0000 C   0  0  0  0  0  0  0  0  0  0  0  0
    3.3305   -2.3054    0.0000 C   0  0  0  0  0  0  0  0  0  0  0  0
    3.3305   -0.0000    0.0000 C   0  0  0  0  0  0  0  0  0  0  0  0
    3.9886   -1.1527    0.0000 C   0  0  0  0  0  0  0  0  0  0  0  0
  1  2  1  0  0  0  0 
  3  2  1  0  0  0  0 
  2  4  1  0  0  0  0 
  5  3  1  0  0  0  0 
  6  4  1  0  0  0  0 
  5  7  1  0  0  0  0 
  7  6  1  0  0  0  0 
M  END
> <Name>
CYCLOHEXANAMINE

> <Source>
DSSTox2DMolFile

> <Tox>
1.004

> <CAS>
108-91-8

$$$$

  CDK

  7  7  0  0  0  0  0  0  0  0999 V2000
    1.9958   -0.0000    0.0000 C   0  0  0  0  0  0  0  0  0  0  0  0
    3.3250   -0.0000    0.0000 C   0  0  0  0  0  0  0  0  0  0  0  0
    1.3292   -1.1496    0.0000 C   0  0  0  0  0  0  0  0  0  0  0  0
    3.9916   -1.1496    0.0000 C   0  0  0  0  0  0  0  0  0  0  0  0
    1.9958   -2.3032    0.0000 C   0  0  0  0  0  0  0  0  0  0  0  0
    0.0000   -1.1496    0.0000 O   0  0  0  0  0  0  0  0  0  0  0  0
    3.3250   -2.3032    0.0000 C   0  0  0  0  0  0  0  0  0  0  0  0
  1  2  1  0  0  0  0 
  1  3  1  0  0  0  0 
  2  4  1  0  0  0  0 
  5  3  1  0  0  0  0 
  3  6  1  0  0  0  0 
  4  7  1  0  0  0  0 
  7  5  1  0  0  0  0 
M  END
> <Name>
CYCLOHEXANOL

> <Source>
DSSTox2DMolFile

> <Tox>
-0.097

> <CAS>
108-93-0

$$$$

  CDK

  7  7  0  0  0  0  0  0  0  0999 V2000
    0.0000   -1.1496    0.0000 O   0  0  0  0  0  0  0  0  0  0  0  0
    1.3292   -1.1496    0.0000 C   0  0  0  0  0  0  0  0  0  0  0  0
    1.9958   -0.0000    0.0000 C   0  0  0  0  0  0  0  0  0  0  0  0
    1.9958   -2.3032    0.0000 C   0  0  0  0  0  0  0  0  0  0  0  0
    3.3250   -0.0000    0.0000 C   0  0  0  0  0  0  0  0  0  0  0  0
    3.3250   -2.3032    0.0000 C   0  0  0  0  0  0  0  0  0  0  0  0
    3.9916   -1.1496    0.0000 C   0  0  0  0  0  0  0  0  0  0  0  0
  1  2  1  0  0  0  0 
  2  3  2  0  0  0  0 
  2  4  1  0  0  0  0 
  3  5  1  0  0  0  0 
  6  4  2  0  0  0  0 
  5  7  2  0  0  0  0 
  7  6  1  0  0  0  0 
M  END
> <Name>
PHENOL

> <Source>
DSSTox2DMolFile

> <Tox>
-0.456

> <CAS>
108-95-2

$$$$

  CDK

  7  7  0  0  0  0  0  0  0  0999 V2000
    1.1527   -1.3282    0.0000 C   0  0  0  0  0  0  0  0  0  0  0  0
    2.3054   -2.0023    0.0000 C   0  0  0  0  0  0  0  0  0  0  0  0
    0.0000   -2.0023    0.0000 C   0  0  0  0  0  0  0  0  0  0  0  0
    1.1527   -0.0000    0.0000 S   0  0  0  0  0  0  0  0  0  0  0  0
    2.3054   -3.3305    0.0000 C   0  0  0  0  0  0  0  0  0  0  0  0
    0.0000   -3.3305    0.0000 C   0  0  0  0  0  0  0  0  0  0  0  0
    1.1527   -3.9886    0.0000 C   0  0  0  0  0  0  0  0  0  0  0  0
  1  2  2  0  0  0  0 
  1  3  1  0  0  0  0 
  1  4  1  0  0  0  0 
  2  5  1  0  0  0  0 
  6  3  2  0  0  0  0 
  5  7  2  0  0  0  0 
  7  6  1  0  0  0  0 
M  END
> <Name>
THIOPHENOL

> <Source>
DSSTox2DMolFile

> <Tox>
0.286

> <CAS>
108-98-5

$$$$

  CDK

  7  7  0  0  0  0  0  0  0  0999 V2000
    0.0000    1.5242    0.0000 C   0  0  0  0  0  0  0  0  0  0  0  0
    0.8637    2.0323    0.0000 C   0  0  0  0  0  0  0  0  0  0  0  0
    0.0000    0.5081    0.0000 C   0  0  0  0  0  0  0  0  0  0  0  0
    1.6767    1.5242    0.0000 C   0  0  0  0  0  0  0  0  0  0  0  0
    0.8637    0.0000    0.0000 N   0  0  0  0  0  0  0  0  0  0  0  0
    1.6767    0.5081    0.0000 C   0  0  0  0  0  0  0  0  0  0  0  0
    2.5912    0.0000    0.0000 Br  0  0  0  0  0  0  0  0  0  0  0  0
  1  2  2  0  0  0  0 
  3  1  1  0  0  0  0 
  2  4  1  0  0  0  0 
  5  3  2  0  0  0  0 
  4  6  2  0  0  0  0 
  6  5  1  0  0  0  0 
  6  7  1  0  0  0  0 
M  END
> <Name>
2-BROMOPYRIDINE

> <Source>
NIST2DMolFile

> <Tox>
-0.114

> <CAS>
109-04-6

$$$$

  CDK

  7  7  0  0  0  0  0  0  0  0999 V2000
    0.0000    0.8568    0.0000 C   0  0  0  0  0  0  0  0  0  0  0  0
    1.0080    0.8568    0.0000 C   0  0  0  0  0  0  0  0  0  0  0  0
    1.5120    1.7136    0.0000 C   0  0  0  0  0  0  0  0  0  0  0  0
    1.5120    0.0000    0.0000 N   0  0  0  0  0  0  0  0  0  0  0  0
    2.5199    1.7136    0.0000 C   0  0  0  0  0  0  0  0  0  0  0  0
    2.5199    0.0000    0.0000 C   0  0  0  0  0  0  0  0  0  0  0  0
    3.0239    0.8568    0.0000 C   0  0  0  0  0  0  0  0  0  0  0  0
  1  2  1  0  0  0  0 
  3  2  1  0  0  0  0 
  2  4  1  0  0  0  0 
  5  3  1  0  0  0  0 
  4  6  1  0  0  0  0 
  7  5  1  0  0  0  0 
  6  7  1  0  0  0  0 
M  END
> <Name>
2-METHYLPIPERIDINE

> <Source>
NIST2DMolFile

> <Tox>
1.286

> <CAS>
109-05-7

$$$$

  CDK

  7  7  0  0  0  0  0  0  0  0999 V2000
    1.9958   -2.3032    0.0000 N   0  0  0  0  0  0  0  0  0  0  0  0
    1.3292   -1.1496    0.0000 C   0  0  0  0  0  0  0  0  0  0  0  0
    3.3250   -2.3032    0.0000 C   0  0  0  0  0  0  0  0  0  0  0  0
    0.0000   -1.1496    0.0000 C   0  0  0  0  0  0  0  0  0  0  0  0
    1.9958   -0.0000    0.0000 C   0  0  0  0  0  0  0  0  0  0  0  0
    3.9916   -1.1496    0.0000 C   0  0  0  0  0  0  0  0  0  0  0  0
    3.3250   -0.0000    0.0000 C   0  0  0  0  0  0  0  0  0  0  0  0
  1  2  2  0  0  0  0 
  1  3  1  0  0  0  0 
  2  4  1  0  0  0  0 
  2  5  1  0  0  0  0 
  6  3  2  0  0  0  0 
  5  7  2  0  0  0  0 
  7  6  1  0  0  0  0 
M  END
> <Name>
2-METHYLPYRIDINE

> <Source>
DSSTox2DMolFile

> <Tox>
1.049

> <CAS>
109-06-8

$$$$

  CDK

  7  7  0  0  0  0  0  0  0  0999 V2000
    0.0000    0.8568    0.0000 C   0  0  0  0  0  0  0  0  0  0  0  0
    1.0080    0.8568    0.0000 C   0  0  0  0  0  0  0  0  0  0  0  0
    1.5120    1.7136    0.0000 C   0  0  0  0  0  0  0  0  0  0  0  0
    1.5120    0.0000    0.0000 N   0  0  0  0  0  0  0  0  0  0  0  0
    2.5199    1.7136    0.0000 N   0  0  0  0  0  0  0  0  0  0  0  0
    2.5199    0.0000    0.0000 C   0  0  0  0  0  0  0  0  0  0  0  0
    3.0239    0.8568    0.0000 C   0  0  0  0  0  0  0  0  0  0  0  0
  1  2  1  0  0  0  0 
  3  2  2  0  0  0  0 
  2  4  1  0  0  0  0 
  5  3  1  0  0  0  0 
  4  6  2  0  0  0  0 
  7  5  2  0  0  0  0 
  6  7  1  0  0  0  0 
M  END
> <Name>
2-METHYLPYRAZINE

> <Source>
NIST2DMolFile

> <Tox>
0.906

> <CAS>
109-08-0

$$$$

  CDK

  7  7  0  0  0  0  0  0  0  0999 V2000
    1.9958   -2.3032    0.0000 N   0  0  0  0  0  0  0  0  0  0  0  0
    1.3292   -1.1496    0.0000 C   0  0  0  0  0  0  0  0  0  0  0  0
    3.3250   -2.3032    0.0000 C   0  0  0  0  0  0  0  0  0  0  0  0
    1.9958   -0.0000    0.0000 C   0  0  0  0  0  0  0  0  0  0  0  0
    0.0000   -1.1496    0.0000 Cl  0  0  0  0  0  0  0  0  0  0  0  0
    3.9916   -1.1496    0.0000 C   0  0  0  0  0  0  0  0  0  0  0  0
    3.3250   -0.0000    0.0000 C   0  0  0  0  0  0  0  0  0  0  0  0
  1  2  2  0  0  0  0 
  1  3  1  0  0  0  0 
  2  4  1  0  0  0  0 
  2  5  1  0  0  0  0 
  6  3  2  0  0  0  0 
  4  7  2  0  0  0  0 
  7  6  1  0  0  0  0 
M  END
> <Name>
2-CHLOROPYRIDINE

> <Source>
DSSTox2DMolFile

> <Tox>
0.338

> <CAS>
109-09-1

$$$$

  CDK

 10  9  0  0  0  0  0  0  0  0999 V2000
    1.0814    0.3824   -0.0014 C   0  0  0  0  0  0  0  0  0  0  0  0
    2.2422   -0.5851   -0.0024 C   0  0  0  0  0  0  0  0  0  0  0  0
    1.0990    1.5973   -0.0011 O   0  0  0  0  0  0  0  0  0  0  0  0
   -0.1221   -0.2648   -0.0011 O   0  0  0  0  0  0  0  0  0  0  0  0
    3.5898    0.1180    0.0038 C   0  0  0  0  0  0  0  0  0  0  0  0
   -1.3166    0.5177   -0.0008 C   0  0  0  0  0  0  0  0  0  0  0  0
    4.7224   -0.8841    0.0010 C   0  0  0  0  0  0  0  0  0  0  0  0
   -2.4781   -0.4721   -0.0015 C   0  0  0  0  0  0  0  0  0  0  0  0
   -3.8032    0.2733    0.0029 C   0  0  0  0  0  0  0  0  0  0  0  0
   -4.9732   -0.6843    0.0008 C   0  0  0  0  0  0  0  0  0  0  0  0
  1  2  1  0  0  0  0 
  1  3  2  0  0  0  0 
  1  4  1  0  0  0  0 
  2  5  1  0  0  0  0 
  4  6  1  0  0  0  0 
  5  7  1  0  0  0  0 
  6  8  1  0  0  0  0 
  8  9  1  0  0  0  0 
  9 10  1  0  0  0  0 
M  END
> <Name>
N-BUTYLBUTYRATE

> <Source>
DougDB3DMolFile

> <Tox>
0.258

> <CAS>
109-21-7

$$$$

  CDK

 22 21  0  0  0  0  0  0  0  0999 V2000
    2.4172    0.0171    0.3146 C   0  0  0  0  0  0  0  0  0  0  0  0
    1.3739    0.1743   -0.7689 C   0  0  0  0  0  0  0  0  0  0  0  0
    2.2327   -0.1277    1.5074 O   0  0  0  0  0  0  0  0  0  0  0  0
    3.6918    0.0415   -0.1680 O   0  0  0  0  0  0  0  0  0  0  0  0
    0.6427    1.4977   -0.6200 C   0  0  0  0  0  0  0  0  0  0  0  0
    4.7737   -0.1006    0.7542 C   0  0  0  0  0  0  0  0  0  0  0  0
   -0.4952    1.6185   -1.6220 C   0  0  0  0  0  0  0  0  0  0  0  0
    6.0544   -0.0445   -0.0734 C   0  0  0  0  0  0  0  0  0  0  0  0
   -1.2428    2.9324   -1.4392 C   0  0  0  0  0  0  0  0  0  0  0  0
    7.2695   -0.1839    0.8298 C   0  0  0  0  0  0  0  0  0  0  0  0
   -2.0122    2.9437   -0.1254 C   0  0  0  0  0  0  0  0  0  0  0  0
    8.5546   -0.1361    0.0346 C   0  0  0  0  0  0  0  0  0  0  0  0
   -3.2013    1.9986   -0.1818 C   0  0  0  0  0  0  0  0  0  0  0  0
   -3.8346    1.8155    1.1873 C   0  0  0  0  0  0  0  0  0  0  0  0
   -5.0829    0.9469    1.1378 C   0  0  0  0  0  0  0  0  0  0  0  0
   -4.8099   -0.4239    0.5562 C   0  0  0  0  0  0  0  0  0  0  0  0
   -5.3280   -0.9146   -0.4274 O   0  0  0  0  0  0  0  0  0  0  0  0
   -3.8975   -1.1493    1.2735 O   0  0  0  0  0  0  0  0  0  0  0  0
   -3.3284   -2.3182    0.7015 C   0  0  0  0  0  0  0  0  0  0  0  0
   -2.2561   -1.9788   -0.3318 C   0  0  0  0  0  0  0  0  0  0  0  0
   -1.5221   -3.2349   -0.7689 C   0  0  0  0  0  0  0  0  0  0  0  0
   -0.4836   -2.9224   -1.8221 C   0  0  0  0  0  0  0  0  0  0  0  0
  1  2  1  0  0  0  0 
  1  3  2  0  0  0  0 
  1  4  1  0  0  0  0 
  2  5  1  0  0  0  0 
  4  6  1  0  0  0  0 
  5  7  1  0  0  0  0 
  6  8  1  0  0  0  0 
  7  9  1  0  0  0  0 
  8 10  1  0  0  0  0 
  9 11  1  0  0  0  0 
 10 12  1  0  0  0  0 
 11 13  1  0  0  0  0 
 13 14  1  0  0  0  0 
 14 15  1  0  0  0  0 
 15 16  1  0  0  0  0 
 16 17  2  0  0  0  0 
 16 18  1  0  0  0  0 
 18 19  1  0  0  0  0 
 19 20  1  0  0  0  0 
 20 21  1  0  0  0  0 
 21 22  1  0  0  0  0 
M  END
> <Name>
DIBUTYL SEBACATE

> <Source>
DougDB3DMolFile

> <Tox>
-5.329

> <CAS>
109-43-3

$$$$

  CDK

  7  6  0  0  0  0  0  0  0  0999 V2000
    1.6853    0.9076    1.6941 C   0  0  0  0  0  0  0  0  0  0  0  0
    2.4647    0.8996    2.9968 C   0  0  0  0  0  0  0  0  0  0  0  0
    0.8148    2.1501    1.5662 C   0  0  0  0  0  0  0  0  0  0  0  0
    3.9367    1.1839    2.8832 C   0  0  0  0  0  0  0  0  0  0  0  0
    1.9294    0.6713    4.0650 O   0  0  0  0  0  0  0  0  0  0  0  0
    1.5439    3.3655    1.1046 C   0  0  0  0  0  0  0  0  0  0  0  0
    2.6372    3.3303    0.3513 C   0  0  0  0  0  0  0  0  0  0  0  0
  1  2  1  0  0  0  0 
  1  3  1  0  0  0  0 
  2  4  1  0  0  0  0 
  2  5  2  0  0  0  0 
  3  6  1  0  0  0  0 
  6  7  2  0  0  0  0 
M  END
> <Name>
1-HEXEN-5-ONE

> <Source>
NIST3DMolFile

> <Tox>
1.021

> <CAS>
109-49-9

$$$$

  CDK

  7  6  0  0  0  0  0  0  0  0999 V2000
    5.7637   -1.9942    0.0000 O   0  0  0  0  0  0  0  0  0  0  0  0
    4.6110   -1.3314    0.0000 C   0  0  0  0  0  0  0  0  0  0  0  0
    3.4582   -1.9942    0.0000 C   0  0  0  0  0  0  0  0  0  0  0  0
    4.6110   -0.0000    0.0000 O   0  0  0  0  0  0  0  0  0  0  0  0
    2.3055   -1.3314    0.0000 C   0  0  0  0  0  0  0  0  0  0  0  0
    1.1527   -1.9942    0.0000 C   0  0  0  0  0  0  0  0  0  0  0  0
    0.0000   -1.3314    0.0000 C   0  0  0  0  0  0  0  0  0  0  0  0
  1  2  1  0  0  0  0 
  2  3  1  0  0  0  0 
  2  4  2  0  0  0  0 
  3  5  1  0  0  0  0 
  5  6  1  0  0  0  0 
  6  7  1  0  0  0  0 
M  END
> <Name>
PENTANOIC ACID

> <Source>
DSSTox2DMolFile

> <Tox>
-0.708

> <CAS>
109-52-4

$$$$

  CDK

  7  6  0  0  0  0  0  0  0  0999 V2000
    5.7637   -1.9942    0.0000 C   0  0  0  0  0  0  0  0  0  0  0  0
    4.6110   -1.3314    0.0000 C   0  0  0  0  0  0  0  0  0  0  0  0
    4.6110   -0.0000    0.0000 O   0  0  0  0  0  0  0  0  0  0  0  0
    3.4582   -1.9942    0.0000 O   0  0  0  0  0  0  0  0  0  0  0  0
    2.3055   -1.3314    0.0000 C   0  0  0  0  0  0  0  0  0  0  0  0
    1.1527   -1.9942    0.0000 C   0  0  0  0  0  0  0  0  0  0  0  0
    0.0000   -1.3314    0.0000 C   0  0  0  0  0  0  0  0  0  0  0  0
  1  2  1  0  0  0  0 
  2  3  2  0  0  0  0 
  2  4  1  0  0  0  0 
  4  5  1  0  0  0  0 
  5  6  1  0  0  0  0 
  6  7  1  0  0  0  0 
M  END
> <Name>
N-PROPYL ACETATE

> <Source>
DSSTox2DMolFile

> <Tox>
1.555

> <CAS>
109-60-4

$$$$

  CDK

  7  6  0  0  0  0  0  0  0  0999 V2000
    2.6112    1.5065    0.0000 O   0  0  0  0  0  0  0  0  0  0  0  0
    3.4649    1.0043    0.0000 C   0  0  0  0  0  0  0  0  0  0  0  0
    1.7073    1.0043    0.0000 C   0  0  0  0  0  0  0  0  0  0  0  0
    3.4649    0.0000    0.0000 Cl  0  0  0  0  0  0  0  0  0  0  0  0
    4.3186    1.5065    0.0000 O   0  0  0  0  0  0  0  0  0  0  0  0
    0.8537    1.5065    0.0000 C   0  0  0  0  0  0  0  0  0  0  0  0
    0.0000    1.0043    0.0000 C   0  0  0  0  0  0  0  0  0  0  0  0
  1  2  1  0  0  0  0 
  1  3  1  0  0  0  0 
  2  4  1  0  0  0  0 
  2  5  2  0  0  0  0 
  3  6  1  0  0  0  0 
  6  7  1  0  0  0  0 
M  END
> <Name>
Carbonochloridic acid, propyl ester

> <Source>
NIST2DMolFile

> <Tox>
1.301

> <CAS>
109-61-5

$$$$

  CDK

  5  4  0  0  0  0  0  0  0  0999 V2000
    0.0000   -0.6638    0.0000 Br  0  0  0  0  0  0  0  0  0  0  0  0
    1.1525   -0.0000    0.0000 C   0  0  0  0  0  0  0  0  0  0  0  0
    2.3050   -0.6638    0.0000 C   0  0  0  0  0  0  0  0  0  0  0  0
    3.4575   -0.0000    0.0000 C   0  0  0  0  0  0  0  0  0  0  0  0
    4.6099   -0.6638    0.0000 C   0  0  0  0  0  0  0  0  0  0  0  0
  1  2  1  0  0  0  0 
  2  3  1  0  0  0  0 
  3  4  1  0  0  0  0 
  4  5  1  0  0  0  0 
M  END
> <Name>
1-BROMOBUTANE

> <Source>
DSSTox2DMolFile

> <Tox>
1.623

> <CAS>
109-65-9

$$$$

  CDK

  5  4  0  0  0  0  0  0  0  0999 V2000
    1.1525   -0.0000    0.0000 C   0  0  0  0  0  0  0  0  0  0  0  0
    2.3050   -0.6638    0.0000 C   0  0  0  0  0  0  0  0  0  0  0  0
    0.0000   -0.6638    0.0000 C   0  0  0  0  0  0  0  0  0  0  0  0
    3.4575   -0.0000    0.0000 C   0  0  0  0  0  0  0  0  0  0  0  0
    4.6099   -0.6638    0.0000 C   0  0  0  0  0  0  0  0  0  0  0  0
  1  2  1  0  0  0  0 
  1  3  1  0  0  0  0 
  2  4  1  0  0  0  0 
  4  5  1  0  0  0  0 
M  END
> <Name>
N-PENTANE

> <Source>
DSSTox2DMolFile

> <Tox>
2.711

> <CAS>
109-66-0

$$$$

  CDK

  5  4  0  0  0  0  0  0  0  0999 V2000
    0.0000   -0.6707    0.0000 C   0  0  0  0  0  0  0  0  0  0  0  0
    1.1485   -0.0000    0.0000 C   0  0  0  0  0  0  0  0  0  0  0  0
    2.2970   -0.6707    0.0000 C   0  0  0  0  0  0  0  0  0  0  0  0
    3.4455   -0.0000    0.0000 C   0  0  0  0  0  0  0  0  0  0  0  0
    4.5940   -0.6707    0.0000 C   0  0  0  0  0  0  0  0  0  0  0  0
  1  2  2  0  0  0  0 
  2  3  1  0  0  0  0 
  3  4  1  0  0  0  0 
  4  5  1  0  0  0  0 
M  END
> <Name>
1-PENTENE

> <Source>
DSSTox2DMolFile

> <Tox>
2.803

> <CAS>
109-67-1

$$$$

  CDK

  5  4  0  0  0  0  0  0  0  0999 V2000
    4.4083    0.9312    0.8284 C   0  0  0  0  0  0  0  0  0  0  0  0
    3.1135    0.6312    1.4970 C   0  0  0  0  0  0  0  0  0  0  0  0
    5.4283    1.4578    1.8150 C   0  0  0  0  0  0  0  0  0  0  0  0
    1.9380    1.0435    1.0204 C   0  0  0  0  0  0  0  0  0  0  0  0
    0.6478    0.7308    1.6733 C   0  0  0  0  0  0  0  0  0  0  0  0
  1  2  1  0  0  0  0 
  1  3  1  0  0  0  0 
  2  4  2  0  0  0  0 
  4  5  1  0  0  0  0 
M  END
> <Name>
2-PENTENE

> <Source>
NIST3DMolFile

> <Tox>
2.723

> <CAS>
109-68-2

$$$$

  CDK

  5  4  0  0  0  0  0  0  0  0999 V2000
    0.0000   -0.6638    0.0000 C   0  0  0  0  0  0  0  0  0  0  0  0
    1.1525   -0.0000    0.0000 C   0  0  0  0  0  0  0  0  0  0  0  0
    2.3050   -0.6638    0.0000 C   0  0  0  0  0  0  0  0  0  0  0  0
    3.4575   -0.0000    0.0000 C   0  0  0  0  0  0  0  0  0  0  0  0
    4.6099   -0.6638    0.0000 N   0  0  0  0  0  0  0  0  0  0  0  0
  1  2  1  0  0  0  0 
  2  3  1  0  0  0  0 
  3  4  1  0  0  0  0 
  4  5  1  0  0  0  0 
M  END
> <Name>
N-BUTYLAMINE

> <Source>
DSSTox2DMolFile

> <Tox>
1.968

> <CAS>
109-73-9

$$$$

  CDK

  5  4  0  0  0  0  0  0  0  0999 V2000
    1.3333   -0.0000    0.0000 C   0  0  0  0  0  0  0  0  0  0  0  0
    2.6666   -0.0000    0.0000 C   0  0  0  0  0  0  0  0  0  0  0  0
    0.0000   -0.0000    0.0000 N   0  0  0  0  0  0  0  0  0  0  0  0
    3.3286   -1.1422    0.0000 C   0  0  0  0  0  0  0  0  0  0  0  0
    4.6619   -1.1422    0.0000 C   0  0  0  0  0  0  0  0  0  0  0  0
  1  2  1  0  0  0  0 
  1  3  3  0  0  0  0 
  2  4  1  0  0  0  0 
  4  5  1  0  0  0  0 
M  END
> <Name>
BUTYRONITRILE

> <Source>
DSSTox2DMolFile

> <Tox>
1.290

> <CAS>
109-74-0

$$$$

  CDK

  5  4  0  0  0  0  0  0  0  0999 V2000
    0.0000   -0.0000    0.0000 N   0  0  0  0  0  0  0  0  0  0  0  0
    1.1515   -0.6679    0.0000 C   0  0  0  0  0  0  0  0  0  0  0  0
    2.3030   -1.3311    0.0000 C   0  0  0  0  0  0  0  0  0  0  0  0
    3.4545   -0.6679    0.0000 C   0  0  0  0  0  0  0  0  0  0  0  0
    4.6060   -0.0000    0.0000 N   0  0  0  0  0  0  0  0  0  0  0  0
  1  2  3  0  0  0  0 
  2  3  1  0  0  0  0 
  3  4  1  0  0  0  0 
  4  5  3  0  0  0  0 
M  END
> <Name>
MALONONITRILE

> <Source>
DSSTox2DMolFile

> <Tox>
-0.699

> <CAS>
109-77-3

$$$$

  CDK

  5  4  0  0  0  0  0  0  0  0999 V2000
    0.0000   -1.1502    0.0000 N   0  0  0  0  0  0  0  0  0  0  0  0
    1.3319   -1.1502    0.0000 C   0  0  0  0  0  0  0  0  0  0  0  0
    2.6590   -1.1502    0.0000 C   0  0  0  0  0  0  0  0  0  0  0  0
    3.3250   -0.0000    0.0000 C   0  0  0  0  0  0  0  0  0  0  0  0
    4.6568   -0.0000    0.0000 O   0  0  0  0  0  0  0  0  0  0  0  0
  1  2  3  0  0  0  0 
  2  3  1  0  0  0  0 
  3  4  1  0  0  0  0 
  4  5  1  0  0  0  0 
M  END
> <Name>
ETHYLENE CYANOHYDRIN

> <Source>
DSSTox2DMolFile

> <Tox>
-1.096

> <CAS>
109-78-4

$$$$

  CDK

  5  4  0  0  0  0  0  0  0  0999 V2000
    1.1557   -0.0000    0.0000 C   0  0  0  0  0  0  0  0  0  0  0  0
    2.3067   -0.6741    0.0000 C   0  0  0  0  0  0  0  0  0  0  0  0
    0.0000   -0.6741    0.0000 S   0  0  0  0  0  0  0  0  0  0  0  0
    3.4486   -0.0000    0.0000 C   0  0  0  0  0  0  0  0  0  0  0  0
    4.5859   -0.6741    0.0000 C   0  0  0  0  0  0  0  0  0  0  0  0
  1  2  1  0  0  0  0 
  1  3  1  0  0  0  0 
  2  4  1  0  0  0  0 
  4  5  1  0  0  0  0 
M  END
> <Name>
BUTANETHIOL

> <Source>
DSSTox2DMolFile

> <Tox>
1.658

> <CAS>
109-79-5

$$$$

  CDK

  5  4  0  0  0  0  0  0  0  0999 V2000
    2.3050   -0.6638    0.0000 C   0  0  0  0  0  0  0  0  0  0  0  0
    1.1525   -0.0000    0.0000 C   0  0  0  0  0  0  0  0  0  0  0  0
    3.4575   -0.0000    0.0000 N   0  0  0  0  0  0  0  0  0  0  0  0
    0.0000   -0.6638    0.0000 O   0  0  0  0  0  0  0  0  0  0  0  0
    4.6099   -0.6638    0.0000 C   0  0  0  0  0  0  0  0  0  0  0  0
  1  2  1  0  0  0  0 
  1  3  1  0  0  0  0 
  2  4  1  0  0  0  0 
  3  5  1  0  0  0  0 
M  END
> <Name>
2-(METHYLAMINO)ETHANOL

> <Source>
DSSTox2DMolFile

> <Tox>
0.033

> <CAS>
109-83-1

$$$$

  CDK

  5  4  0  0  0  0  0  0  0  0999 V2000
    3.9893   -2.3058    0.0000 C   0  0  0  0  0  0  0  0  0  0  0  0
    2.6609   -2.3058    0.0000 O   0  0  0  0  0  0  0  0  0  0  0  0
    1.9867   -1.1529    0.0000 C   0  0  0  0  0  0  0  0  0  0  0  0
    0.6582   -1.1529    0.0000 C   0  0  0  0  0  0  0  0  0  0  0  0
    0.0000   -0.0000    0.0000 O   0  0  0  0  0  0  0  0  0  0  0  0
  1  2  1  0  0  0  0 
  2  3  1  0  0  0  0 
  3  4  1  0  0  0  0 
  4  5  1  0  0  0  0 
M  END
> <Name>
2-METHOXYETHANOL

> <Source>
DSSTox2DMolFile

> <Tox>
0.978

> <CAS>
109-86-4

$$$$

  CDK

  5  4  0  0  0  0  0  0  0  0999 V2000
    0.0000   -0.6638    0.0000 C   0  0  0  0  0  0  0  0  0  0  0  0
    1.1525   -0.0000    0.0000 C   0  0  0  0  0  0  0  0  0  0  0  0
    2.3050   -0.6638    0.0000 N   0  0  0  0  0  0  0  0  0  0  0  0
    3.4575   -0.0000    0.0000 C   0  0  0  0  0  0  0  0  0  0  0  0
    4.6099   -0.6638    0.0000 C   0  0  0  0  0  0  0  0  0  0  0  0
  1  2  1  0  0  0  0 
  2  3  1  0  0  0  0 
  3  4  1  0  0  0  0 
  4  5  1  0  0  0  0 
M  END
> <Name>
DIETHYLAMINE

> <Source>
DSSTox2DMolFile

> <Tox>
2.375

> <CAS>
109-89-7

$$$$

  CDK

  5  4  0  0  0  0  0  0  0  0999 V2000
    3.4694   -0.6569    0.0000 C   0  0  0  0  0  0  0  0  0  0  0  0
    4.6259   -0.0000    0.0000 C   0  0  0  0  0  0  0  0  0  0  0  0
    2.3129   -0.0000    0.0000 O   0  0  0  0  0  0  0  0  0  0  0  0
    1.1565   -0.6569    0.0000 C   0  0  0  0  0  0  0  0  0  0  0  0
    0.0000   -0.0000    0.0000 C   0  0  0  0  0  0  0  0  0  0  0  0
  1  2  2  0  0  0  0 
  1  3  1  0  0  0  0 
  3  4  1  0  0  0  0 
  4  5  1  0  0  0  0 
M  END
> <Name>
ETHYL VINYL ETHER

> <Source>
DSSTox2DMolFile

> <Tox>
2.708

> <CAS>
109-92-2

$$$$

  CDK

  5  4  0  0  0  0  0  0  0  0999 V2000
   -1.3292    0.5023    0.0000 C   0  0  0  0  0  0  0  0  0  0  0  0
   -1.8349   -0.5961   -0.0002 O   0  0  0  0  0  0  0  0  0  0  0  0
    0.0141    0.6501    0.0002 O   0  0  0  0  0  0  0  0  0  0  0  0
    0.8480   -0.5129    0.0004 C   0  0  0  0  0  0  0  0  0  0  0  0
    2.2824   -0.0224   -0.0003 C   0  0  0  0  0  0  0  0  0  0  0  0
  1  2  2  0  0  0  0 
  1  3  1  0  0  0  0 
  3  4  1  0  0  0  0 
  4  5  1  0  0  0  0 
M  END
> <Name>
ETHYL FORMATE

> <Source>
DougDB3DMolFile

> <Tox>
2.389

> <CAS>
109-94-4

$$$$

  CDK

  5  5  0  0  0  0  0  0  0  0999 V2000
    1.7409   -0.0000    0.0000 N   0  0  0  0  0  0  0  0  0  0  0  0
    2.1519   -1.2653    0.0000 C   0  0  0  0  0  0  0  0  0  0  0  0
    0.4110   -0.0000    0.0000 C   0  0  0  0  0  0  0  0  0  0  0  0
    1.0760   -2.0465    0.0000 C   0  0  0  0  0  0  0  0  0  0  0  0
    0.0000   -1.2653    0.0000 C   0  0  0  0  0  0  0  0  0  0  0  0
  1  2  1  0  0  0  0 
  1  3  1  0  0  0  0 
  2  4  2  0  0  0  0 
  5  3  2  0  0  0  0 
  4  5  1  0  0  0  0 
M  END
> <Name>
PYRROLE

> <Source>
DSSTox2DMolFile

> <Tox>
0.922

> <CAS>
109-97-7

$$$$

  CDK

  5  5  0  0  0  0  0  0  0  0999 V2000
    1.0798   -0.0000    0.0000 O   0  0  0  0  0  0  0  0  0  0  0  0
    0.0000   -0.7451    0.0000 C   0  0  0  0  0  0  0  0  0  0  0  0
    2.1597   -0.7451    0.0000 C   0  0  0  0  0  0  0  0  0  0  0  0
    0.4298   -2.0323    0.0000 C   0  0  0  0  0  0  0  0  0  0  0  0
    1.7472   -2.0323    0.0000 C   0  0  0  0  0  0  0  0  0  0  0  0
  1  2  1  0  0  0  0 
  1  3  1  0  0  0  0 
  2  4  1  0  0  0  0 
  3  5  1  0  0  0  0 
  4  5  1  0  0  0  0 
M  END
> <Name>
TETRAHYDROFURAN

> <Source>
DSSTox2DMolFile

> <Tox>
2.210

> <CAS>
109-99-9

$$$$

  CDK

  5  5  0  0  0  0  0  0  0  0999 V2000
    1.7409   -0.0000    0.0000 C   0  0  0  0  0  0  0  0  0  0  0  0
    2.1519   -1.2653    0.0000 C   0  0  0  0  0  0  0  0  0  0  0  0
    0.4110   -0.0000    0.0000 C   0  0  0  0  0  0  0  0  0  0  0  0
    1.0760   -2.0465    0.0000 O   0  0  0  0  0  0  0  0  0  0  0  0
    0.0000   -1.2653    0.0000 C   0  0  0  0  0  0  0  0  0  0  0  0
  1  2  2  0  0  0  0 
  1  3  1  0  0  0  0 
  2  4  1  0  0  0  0 
  5  3  2  0  0  0  0 
  4  5  1  0  0  0  0 
M  END
> <Name>
FURAN

> <Source>
DSSTox2DMolFile

> <Tox>
2.778

> <CAS>
110-00-9

$$$$

  CDK

  5  5  0  0  0  0  0  0  0  0999 V2000
    0.0009    1.3355    0.1076 C   0  0  0  0  0  0  0  0  0  0  0  0
   -1.3624    0.7361   -0.2019 C   0  0  0  0  0  0  0  0  0  0  0  0
    1.2383   -0.0001    0.0000 S   0  0  0  0  0  0  0  0  0  0  0  0
   -1.3626   -0.7359    0.2019 C   0  0  0  0  0  0  0  0  0  0  0  0
    0.0007   -1.3355   -0.1074 C   0  0  0  0  0  0  0  0  0  0  0  0
  1  2  1  0  0  0  0 
  1  3  1  0  0  0  0 
  2  4  1  0  0  0  0 
  5  3  1  0  0  0  0 
  4  5  1  0  0  0  0 
M  END
> <Name>
TETRAHYDROTHIOPHENE

> <Source>
DougDB3DMolFile

> <Tox>
1.265

> <CAS>
110-01-0

$$$$

  CDK

  5  5  0  0  0  0  0  0  0  0999 V2000
    1.7409   -0.0000    0.0000 C   0  0  0  0  0  0  0  0  0  0  0  0
    2.1519   -1.2653    0.0000 C   0  0  0  0  0  0  0  0  0  0  0  0
    0.4110   -0.0000    0.0000 C   0  0  0  0  0  0  0  0  0  0  0  0
    1.0760   -2.0465    0.0000 S   0  0  0  0  0  0  0  0  0  0  0  0
    0.0000   -1.2653    0.0000 C   0  0  0  0  0  0  0  0  0  0  0  0
  1  2  2  0  0  0  0 
  1  3  1  0  0  0  0 
  2  4  1  0  0  0  0 
  5  3  2  0  0  0  0 
  4  5  1  0  0  0  0 
M  END
> <Name>
THIOPHENE

> <Source>
DSSTox2DMolFile

> <Tox>
1.901

> <CAS>
110-02-1

$$$$

  CDK

  8  7  0  0  0  0  0  0  0  0999 V2000
    5.7628   -1.9939    0.0000 C   0  0  0  0  0  0  0  0  0  0  0  0
    4.6103   -1.3312    0.0000 C   0  0  0  0  0  0  0  0  0  0  0  0
    4.6103   -0.0000    0.0000 O   0  0  0  0  0  0  0  0  0  0  0  0
    3.4577   -1.9939    0.0000 C   0  0  0  0  0  0  0  0  0  0  0  0
    2.3051   -1.3312    0.0000 C   0  0  0  0  0  0  0  0  0  0  0  0
    1.1526   -1.9939    0.0000 C   0  0  0  0  0  0  0  0  0  0  0  0
    1.1526   -3.3252    0.0000 C   0  0  0  0  0  0  0  0  0  0  0  0
    0.0000   -1.3312    0.0000 C   0  0  0  0  0  0  0  0  0  0  0  0
  1  2  1  0  0  0  0 
  2  3  2  0  0  0  0 
  2  4  1  0  0  0  0 
  4  5  1  0  0  0  0 
  5  6  1  0  0  0  0 
  6  7  1  0  0  0  0 
  6  8  1  0  0  0  0 
M  END
> <Name>
5-METHYL-2-HEXANONE

> <Source>
DSSTox2DMolFile

> <Tox>
0.761

> <CAS>
110-12-3

$$$$

  CDK

  8  7  0  0  0  0  0  0  0  0999 V2000
    4.6103   -1.3312    0.0000 C   0  0  0  0  0  0  0  0  0  0  0  0
    5.7628   -1.9939    0.0000 O   0  0  0  0  0  0  0  0  0  0  0  0
    4.6103   -0.0000    0.0000 O   0  0  0  0  0  0  0  0  0  0  0  0
    3.4577   -1.9939    0.0000 C   0  0  0  0  0  0  0  0  0  0  0  0
    2.3051   -1.3312    0.0000 C   0  0  0  0  0  0  0  0  0  0  0  0
    1.1526   -1.9939    0.0000 C   0  0  0  0  0  0  0  0  0  0  0  0
    0.0000   -1.3312    0.0000 O   0  0  0  0  0  0  0  0  0  0  0  0
    1.1526   -3.3252    0.0000 O   0  0  0  0  0  0  0  0  0  0  0  0
  1  2  1  0  0  0  0 
  1  3  2  0  0  0  0 
  1  4  1  0  0  0  0 
  4  5  1  0  0  0  0 
  5  6  1  0  0  0  0 
  6  7  1  0  0  0  0 
  6  8  2  0  0  0  0 
M  END
> <Name>
BUTANEDIOC ACID

> <Source>
DSSTox2DMolFile

> <Tox>
-6.719

> <CAS>
110-15-6

$$$$

  CDK

  8  7  0  0  0  0  0  0  0  0999 V2000
    3.4445   -0.6530    0.0000 O   0  0  0  0  0  0  0  0  0  0  0  0
    3.4445   -1.9867    0.0000 C   0  0  0  0  0  0  0  0  0  0  0  0
    4.5989   -2.6581    0.0000 O   0  0  0  0  0  0  0  0  0  0  0  0
    2.2902   -2.6581    0.0000 C   0  0  0  0  0  0  0  0  0  0  0  0
    1.1359   -1.9867    0.0000 C   0  0  0  0  0  0  0  0  0  0  0  0
    1.1359   -0.6530    0.0000 C   0  0  0  0  0  0  0  0  0  0  0  0
    2.2902   -0.0000    0.0000 O   0  0  0  0  0  0  0  0  0  0  0  0
    0.0000   -0.0000    0.0000 O   0  0  0  0  0  0  0  0  0  0  0  0
  1  2  2  0  0  0  0 
  2  3  1  0  0  0  0 
  2  4  1  0  0  0  0 
  4  5  2  0  0  0  0 
  5  6  1  0  0  0  0 
  6  7  1  0  0  0  0 
  6  8  2  0  0  0  0 
M  END
> <Name>
MALEIC ACID

> <Source>
DSSTox2DMolFile

> <Tox>
-4.445

> <CAS>
110-16-7

$$$$

  CDK

  8  7  0  0  0  0  0  0  0  0999 V2000
    0.0000   -1.3312    0.0000 O   0  0  0  0  0  0  0  0  0  0  0  0
    1.1526   -1.9939    0.0000 C   0  0  0  0  0  0  0  0  0  0  0  0
    2.3051   -1.3312    0.0000 C   0  0  0  0  0  0  0  0  0  0  0  0
    1.1526   -3.3252    0.0000 O   0  0  0  0  0  0  0  0  0  0  0  0
    3.4577   -1.9939    0.0000 C   0  0  0  0  0  0  0  0  0  0  0  0
    4.6103   -1.3312    0.0000 C   0  0  0  0  0  0  0  0  0  0  0  0
    5.7628   -1.9939    0.0000 O   0  0  0  0  0  0  0  0  0  0  0  0
    4.6103   -0.0000    0.0000 O   0  0  0  0  0  0  0  0  0  0  0  0
  1  2  1  0  0  0  0 
  2  3  1  0  0  0  0 
  2  4  2  0  0  0  0 
  3  5  2  0  0  0  0 
  5  6  1  0  0  0  0 
  6  7  1  0  0  0  0 
  6  8  2  0  0  0  0 
M  END
> <Name>
FUMARIC ACID

> <Source>
DSSTox2DMolFile

> <Tox>
-3.812

> <CAS>
110-17-8

$$$$

  CDK

 19 18  0  0  0  0  0  0  0  0999 V2000
    3.5149   -1.2950    0.0000 C   0  0  0  0  0  0  0  0  0  0  0  0
    4.6249   -1.9609    0.0000 C   0  0  0  0  0  0  0  0  0  0  0  0
    2.3494   -1.9609    0.0000 O   0  0  0  0  0  0  0  0  0  0  0  0
    3.5149   -0.0000    0.0000 O   0  0  0  0  0  0  0  0  0  0  0  0
    5.7903   -1.2950    0.0000 C   0  0  0  0  0  0  0  0  0  0  0  0
    1.1655   -1.2950    0.0000 C   0  0  0  0  0  0  0  0  0  0  0  0
    6.9743   -1.9609    0.0000 C   0  0  0  0  0  0  0  0  0  0  0  0
    0.0000   -1.9609    0.0000 C   0  0  0  0  0  0  0  0  0  0  0  0
    1.1655   -0.0000    0.0000 C   0  0  0  0  0  0  0  0  0  0  0  0
    8.0843   -1.2950    0.0000 C   0  0  0  0  0  0  0  0  0  0  0  0
    9.2497   -1.9609    0.0000 C   0  0  0  0  0  0  0  0  0  0  0  0
   10.4152   -1.2950    0.0000 C   0  0  0  0  0  0  0  0  0  0  0  0
   11.5992   -1.9609    0.0000 C   0  0  0  0  0  0  0  0  0  0  0  0
   12.7647   -1.2950    0.0000 C   0  0  0  0  0  0  0  0  0  0  0  0
   13.8746   -1.9609    0.0000 C   0  0  0  0  0  0  0  0  0  0  0  0
   15.0401   -1.2950    0.0000 C   0  0  0  0  0  0  0  0  0  0  0  0
   16.2241   -1.9609    0.0000 C   0  0  0  0  0  0  0  0  0  0  0  0
   17.3340   -1.2950    0.0000 C   0  0  0  0  0  0  0  0  0  0  0  0
   18.4995   -1.9609    0.0000 C   0  0  0  0  0  0  0  0  0  0  0  0
  1  2  1  0  0  0  0 
  1  3  1  0  0  0  0 
  1  4  2  0  0  0  0 
  2  5  1  0  0  0  0 
  3  6  1  0  0  0  0 
  5  7  1  0  0  0  0 
  6  8  1  0  0  0  0 
  6  9  1  0  0  0  0 
  7 10  1  0  0  0  0 
 10 11  1  0  0  0  0 
 11 12  1  0  0  0  0 
 12 13  1  0  0  0  0 
 13 14  1  0  0  0  0 
 14 15  1  0  0  0  0 
 15 16  1  0  0  0  0 
 16 17  1  0  0  0  0 
 17 18  1  0  0  0  0 
 18 19  1  0  0  0  0 
M  END
> <Name>
ISOPROPYL MYRISTATE

> <Source>
DSSTox2DMolFile

> <Tox>
-4.029

> <CAS>
110-27-0

$$$$

  CDK

 22 21  0  0  0  0  0  0  0  0999 V2000
    8.0200   -1.3076    0.0000 C   0  0  0  0  0  0  0  0  0  0  0  0
    9.1750   -1.9832    0.0000 C   0  0  0  0  0  0  0  0  0  0  0  0
    6.8867   -1.9832    0.0000 O   0  0  0  0  0  0  0  0  0  0  0  0
    8.0200   -0.0000    0.0000 O   0  0  0  0  0  0  0  0  0  0  0  0
   10.3301   -1.3076    0.0000 C   0  0  0  0  0  0  0  0  0  0  0  0
    5.7535   -1.3076    0.0000 C   0  0  0  0  0  0  0  0  0  0  0  0
   11.4633   -1.9832    0.0000 C   0  0  0  0  0  0  0  0  0  0  0  0
    4.5984   -1.9832    0.0000 C   0  0  0  0  0  0  0  0  0  0  0  0
   12.6184   -1.3076    0.0000 C   0  0  0  0  0  0  0  0  0  0  0  0
    3.4434   -1.3076    0.0000 C   0  0  0  0  0  0  0  0  0  0  0  0
   13.7735   -1.9832    0.0000 C   0  0  0  0  0  0  0  0  0  0  0  0
    2.2883   -1.9832    0.0000 C   0  0  0  0  0  0  0  0  0  0  0  0
   14.9067   -1.3076    0.0000 O   0  0  0  0  0  0  0  0  0  0  0  0
   13.7735   -3.3126    0.0000 O   0  0  0  0  0  0  0  0  0  0  0  0
    1.1551   -1.3076    0.0000 C   0  0  0  0  0  0  0  0  0  0  0  0
   16.0400   -1.9832    0.0000 C   0  0  0  0  0  0  0  0  0  0  0  0
    0.0000   -1.9832    0.0000 C   0  0  0  0  0  0  0  0  0  0  0  0
   17.1950   -1.3076    0.0000 C   0  0  0  0  0  0  0  0  0  0  0  0
   18.3501   -1.9832    0.0000 C   0  0  0  0  0  0  0  0  0  0  0  0
   19.5051   -1.3076    0.0000 C   0  0  0  0  0  0  0  0  0  0  0  0
   20.6384   -1.9832    0.0000 C   0  0  0  0  0  0  0  0  0  0  0  0
   21.7934   -1.3076    0.0000 C   0  0  0  0  0  0  0  0  0  0  0  0
  1  2  1  0  0  0  0 
  1  3  1  0  0  0  0 
  1  4  2  0  0  0  0 
  2  5  1  0  0  0  0 
  3  6  1  0  0  0  0 
  5  7  1  0  0  0  0 
  6  8  1  0  0  0  0 
  7  9  1  0  0  0  0 
  8 10  1  0  0  0  0 
  9 11  1  0  0  0  0 
 10 12  1  0  0  0  0 
 11 13  1  0  0  0  0 
 11 14  2  0  0  0  0 
 12 15  1  0  0  0  0 
 13 16  1  0  0  0  0 
 15 17  1  0  0  0  0 
 16 18  1  0  0  0  0 
 18 19  1  0  0  0  0 
 19 20  1  0  0  0  0 
 20 21  1  0  0  0  0 
 21 22  1  0  0  0  0 
M  END
> <Name>
DIHEXYL ADIPATE

> <Source>
DSSTox2DMolFile

> <Tox>
-5.541

> <CAS>
110-33-8

$$$$

  CDK

 18 17  0  0  0  0  0  0  0  0999 V2000
   16.0803   -3.3125    0.0000 C   0  0  0  0  0  0  0  0  0  0  0  0
   16.0803   -1.9940    0.0000 C   0  0  0  0  0  0  0  0  0  0  0  0
   14.9386   -1.3186    0.0000 O   0  0  0  0  0  0  0  0  0  0  0  0
   13.7808   -1.9940    0.0000 C   0  0  0  0  0  0  0  0  0  0  0  0
   13.7808   -3.3125    0.0000 O   0  0  0  0  0  0  0  0  0  0  0  0
   12.6391   -1.3186    0.0000 C   0  0  0  0  0  0  0  0  0  0  0  0
   11.4813   -1.9940    0.0000 C   0  0  0  0  0  0  0  0  0  0  0  0
   10.3396   -1.3186    0.0000 C   0  0  0  0  0  0  0  0  0  0  0  0
    9.1819   -1.9940    0.0000 C   0  0  0  0  0  0  0  0  0  0  0  0
    8.0402   -1.3186    0.0000 C   0  0  0  0  0  0  0  0  0  0  0  0
    6.8985   -1.9940    0.0000 C   0  0  0  0  0  0  0  0  0  0  0  0
    5.7407   -1.3186    0.0000 C   0  0  0  0  0  0  0  0  0  0  0  0
    4.5990   -1.9940    0.0000 C   0  0  0  0  0  0  0  0  0  0  0  0
    3.4412   -1.3186    0.0000 C   0  0  0  0  0  0  0  0  0  0  0  0
    3.4412   -0.0000    0.0000 O   0  0  0  0  0  0  0  0  0  0  0  0
    2.2995   -1.9940    0.0000 O   0  0  0  0  0  0  0  0  0  0  0  0
    1.1417   -1.3186    0.0000 C   0  0  0  0  0  0  0  0  0  0  0  0
    0.0000   -1.9940    0.0000 C   0  0  0  0  0  0  0  0  0  0  0  0
  1  2  1  0  0  0  0 
  2  3  1  0  0  0  0 
  3  4  1  0  0  0  0 
  4  5  2  0  0  0  0 
  4  6  1  0  0  0  0 
  6  7  1  0  0  0  0 
  7  8  1  0  0  0  0 
  8  9  1  0  0  0  0 
  9 10  1  0  0  0  0 
 10 11  1  0  0  0  0 
 11 12  1  0  0  0  0 
 12 13  1  0  0  0  0 
 13 14  1  0  0  0  0 
 14 15  2  0  0  0  0 
 14 16  1  0  0  0  0 
 16 17  1  0  0  0  0 
 17 18  1  0  0  0  0 
M  END
> <Name>
DIETHYL SEBACATE

> <Source>
DSSTox2DMolFile

> <Tox>
-3.294

> <CAS>
110-40-7

$$$$

  CDK

 13 12  0  0  0  0  0  0  0  0999 V2000
    2.2735   -1.3389    0.0000 C   0  0  0  0  0  0  0  0  0  0  0  0
    3.4482   -2.0083    0.0000 C   0  0  0  0  0  0  0  0  0  0  0  0
    1.1494   -2.0083    0.0000 O   0  0  0  0  0  0  0  0  0  0  0  0
    2.2735   -0.0000    0.0000 O   0  0  0  0  0  0  0  0  0  0  0  0
    4.5976   -1.3389    0.0000 C   0  0  0  0  0  0  0  0  0  0  0  0
    0.0000   -1.3389    0.0000 C   0  0  0  0  0  0  0  0  0  0  0  0
    5.7218   -2.0083    0.0000 C   0  0  0  0  0  0  0  0  0  0  0  0
    6.9091   -1.3389    0.0000 C   0  0  0  0  0  0  0  0  0  0  0  0
    8.0332   -2.0083    0.0000 C   0  0  0  0  0  0  0  0  0  0  0  0
    9.1826   -1.3389    0.0000 C   0  0  0  0  0  0  0  0  0  0  0  0
   10.3068   -2.0083    0.0000 C   0  0  0  0  0  0  0  0  0  0  0  0
   11.4814   -1.3389    0.0000 C   0  0  0  0  0  0  0  0  0  0  0  0
   12.6308   -2.0083    0.0000 C   0  0  0  0  0  0  0  0  0  0  0  0
  1  2  1  0  0  0  0 
  1  3  1  0  0  0  0 
  1  4  2  0  0  0  0 
  2  5  1  0  0  0  0 
  3  6  1  0  0  0  0 
  5  7  1  0  0  0  0 
  7  8  1  0  0  0  0 
  8  9  1  0  0  0  0 
  9 10  1  0  0  0  0 
 10 11  1  0  0  0  0 
 11 12  1  0  0  0  0 
 12 13  1  0  0  0  0 
M  END
> <Name>
METHYL DECANOATE

> <Source>
DSSTox2DMolFile

> <Tox>
-1.432

> <CAS>
110-42-9

$$$$

  CDK

  8  7  0  0  0  0  0  0  0  0999 V2000
    0.0000   -1.9974    0.0000 C   0  0  0  0  0  0  0  0  0  0  0  0
    1.1542   -1.3339    0.0000 C   0  0  0  0  0  0  0  0  0  0  0  0
    2.3015   -1.9974    0.0000 C   0  0  0  0  0  0  0  0  0  0  0  0
    3.4558   -1.3339    0.0000 C   0  0  0  0  0  0  0  0  0  0  0  0
    4.6100   -1.9974    0.0000 C   0  0  0  0  0  0  0  0  0  0  0  0
    5.7573   -1.3339    0.0000 C   0  0  0  0  0  0  0  0  0  0  0  0
    5.7573   -0.0000    0.0000 O   0  0  0  0  0  0  0  0  0  0  0  0
    6.9115   -1.9974    0.0000 C   0  0  0  0  0  0  0  0  0  0  0  0
  1  2  1  0  0  0  0 
  2  3  1  0  0  0  0 
  3  4  1  0  0  0  0 
  4  5  1  0  0  0  0 
  5  6  1  0  0  0  0 
  6  7  2  0  0  0  0 
  6  8  1  0  0  0  0 
M  END
> <Name>
2-HEPTANONE

> <Source>
DSSTox2DMolFile

> <Tox>
0.587

> <CAS>
110-43-0

$$$$

  CDK

  8  7  0  0  0  0  0  0  0  0999 V2000
    3.1434    2.1146    2.2632 C   0  0  0  0  0  0  0  0  0  0  0  0
    3.6748    0.7110    2.5426 C   0  0  0  0  0  0  0  0  0  0  0  0
    1.6163    2.1244    2.1777 C   0  0  0  0  0  0  0  0  0  0  0  0
    5.0967    0.6579    2.4809 O   0  0  0  0  0  0  0  0  0  0  0  0
    1.1317    1.5377    0.8614 C   0  0  0  0  0  0  0  0  0  0  0  0
    1.0960    3.5448    2.3356 C   0  0  0  0  0  0  0  0  0  0  0  0
    5.8501    0.9763    3.5604 C   0  0  0  0  0  0  0  0  0  0  0  0
    5.3452    1.3079    4.6072 O   0  0  0  0  0  0  0  0  0  0  0  0
  1  2  1  0  0  0  0 
  1  3  1  0  0  0  0 
  2  4  1  0  0  0  0 
  3  5  1  0  0  0  0 
  3  6  1  0  0  0  0 
  4  7  1  0  0  0  0 
  7  8  2  0  0  0  0 
M  END
> <Name>
ISOAMYL FORMATE

> <Source>
NIST3DMolFile

> <Tox>
1.185

> <CAS>
110-45-2

$$$$

  CDK

  6  5  0  0  0  0  0  0  0  0999 V2000
    4.4408    0.0000    0.0000 Br  0  0  0  0  0  0  0  0  0  0  0  0
    3.5731    0.4594    0.0000 C   0  0  0  0  0  0  0  0  0  0  0  0
    2.6543    0.0000    0.0000 C   0  0  0  0  0  0  0  0  0  0  0  0
    1.7865    0.4594    0.0000 C   0  0  0  0  0  0  0  0  0  0  0  0
    0.9188    0.0000    0.0000 C   0  0  0  0  0  0  0  0  0  0  0  0
    0.0000    0.4594    0.0000 Br  0  0  0  0  0  0  0  0  0  0  0  0
  1  2  1  0  0  0  0 
  2  3  1  0  0  0  0 
  3  4  1  0  0  0  0 
  4  5  1  0  0  0  0 
  5  6  1  0  0  0  0 
M  END
> <Name>
1,4-DIBROMOBUTANE

> <Source>
NIST2DMolFile

> <Tox>
-0.210

> <CAS>
110-52-1

$$$$

  CDK

  6  5  0  0  0  0  0  0  0  0999 V2000
    0.0000    0.0000    0.0000 C   0  0  0  0  0  0  0  0  0  0  0  0
    0.8677    0.4594    0.0000 C   0  0  0  0  0  0  0  0  0  0  0  0
    1.7355    0.0000    0.0000 C   0  0  0  0  0  0  0  0  0  0  0  0
    2.6543    0.4594    0.0000 C   0  0  0  0  0  0  0  0  0  0  0  0
    3.5220    0.0000    0.0000 C   0  0  0  0  0  0  0  0  0  0  0  0
    4.4408    0.4594    0.0000 Br  0  0  0  0  0  0  0  0  0  0  0  0
  1  2  1  0  0  0  0 
  2  3  1  0  0  0  0 
  3  4  1  0  0  0  0 
  4  5  1  0  0  0  0 
  5  6  1  0  0  0  0 
M  END
> <Name>
1-BROMOPENTANE

> <Source>
NIST2DMolFile

> <Tox>
1.100

> <CAS>
110-53-2

$$$$

  CDK

  6  5  0  0  0  0  0  0  0  0999 V2000
    0.0000   -0.6630    0.0000 C   0  0  0  0  0  0  0  0  0  0  0  0
    1.1530   -0.0000    0.0000 C   0  0  0  0  0  0  0  0  0  0  0  0
    2.3060   -0.6630    0.0000 C   0  0  0  0  0  0  0  0  0  0  0  0
    3.4590   -0.0000    0.0000 C   0  0  0  0  0  0  0  0  0  0  0  0
    4.6119   -0.6630    0.0000 C   0  0  0  0  0  0  0  0  0  0  0  0
    5.7649   -0.0000    0.0000 C   0  0  0  0  0  0  0  0  0  0  0  0
  1  2  1  0  0  0  0 
  2  3  1  0  0  0  0 
  3  4  1  0  0  0  0 
  4  5  1  0  0  0  0 
  5  6  1  0  0  0  0 
M  END
> <Name>
N-HEXANE

> <Source>
DSSTox2DMolFile

> <Tox>
2.179

> <CAS>
110-54-3

$$$$

  CDK

  6  5  0  0  0  0  0  0  0  0999 V2000
    0.0000   -0.6630    0.0000 Cl  0  0  0  0  0  0  0  0  0  0  0  0
    1.1530   -0.0000    0.0000 C   0  0  0  0  0  0  0  0  0  0  0  0
    2.3060   -0.6630    0.0000 C   0  0  0  0  0  0  0  0  0  0  0  0
    3.4590   -0.0000    0.0000 C   0  0  0  0  0  0  0  0  0  0  0  0
    4.6119   -0.6630    0.0000 C   0  0  0  0  0  0  0  0  0  0  0  0
    5.7649   -0.0000    0.0000 Cl  0  0  0  0  0  0  0  0  0  0  0  0
  1  2  1  0  0  0  0 
  2  3  1  0  0  0  0 
  3  4  1  0  0  0  0 
  4  5  1  0  0  0  0 
  5  6  1  0  0  0  0 
M  END
> <Name>
1,4-DICHLOROBUTANE

> <Source>
DSSTox2DMolFile

> <Tox>
0.616

> <CAS>
110-56-5

$$$$

  CDK

  6  5  0  0  0  0  0  0  0  0999 V2000
    0.0000   -0.6630    0.0000 C   0  0  0  0  0  0  0  0  0  0  0  0
    1.1530   -0.0000    0.0000 C   0  0  0  0  0  0  0  0  0  0  0  0
    2.3060   -0.6630    0.0000 C   0  0  0  0  0  0  0  0  0  0  0  0
    3.4590   -0.0000    0.0000 C   0  0  0  0  0  0  0  0  0  0  0  0
    4.6119   -0.6630    0.0000 C   0  0  0  0  0  0  0  0  0  0  0  0
    5.7649   -0.0000    0.0000 N   0  0  0  0  0  0  0  0  0  0  0  0
  1  2  1  0  0  0  0 
  2  3  1  0  0  0  0 
  3  4  1  0  0  0  0 
  4  5  1  0  0  0  0 
  5  6  1  0  0  0  0 
M  END
> <Name>
N-PENTYLAMINE

> <Source>
DSSTox2DMolFile

> <Tox>
1.477

> <CAS>
110-58-7

$$$$

  CDK

  6  5  0  0  0  0  0  0  0  0999 V2000
    5.7624   -0.0000    0.0000 N   0  0  0  0  0  0  0  0  0  0  0  0
    4.6099   -0.6684    0.0000 C   0  0  0  0  0  0  0  0  0  0  0  0
    3.4575   -1.3311    0.0000 C   0  0  0  0  0  0  0  0  0  0  0  0
    2.3050   -0.6684    0.0000 C   0  0  0  0  0  0  0  0  0  0  0  0
    1.1525   -1.3311    0.0000 C   0  0  0  0  0  0  0  0  0  0  0  0
    0.0000   -0.6684    0.0000 C   0  0  0  0  0  0  0  0  0  0  0  0
  1  2  3  0  0  0  0 
  2  3  1  0  0  0  0 
  3  4  1  0  0  0  0 
  4  5  1  0  0  0  0 
  5  6  1  0  0  0  0 
M  END
> <Name>
VALERONITRILE

> <Source>
DSSTox2DMolFile

> <Tox>
0.863

> <CAS>
110-59-8

$$$$

  CDK

  6  5  0  0  0  0  0  0  0  0999 V2000
    0.0000   -1.1500    0.0000 N   0  0  0  0  0  0  0  0  0  0  0  0
    1.3297   -1.1500    0.0000 C   0  0  0  0  0  0  0  0  0  0  0  0
    2.6593   -1.1500    0.0000 C   0  0  0  0  0  0  0  0  0  0  0  0
    3.3302   -0.0000    0.0000 C   0  0  0  0  0  0  0  0  0  0  0  0
    4.6598   -0.0000    0.0000 C   0  0  0  0  0  0  0  0  0  0  0  0
    5.9895   -0.0000    0.0000 N   0  0  0  0  0  0  0  0  0  0  0  0
  1  2  3  0  0  0  0 
  2  3  1  0  0  0  0 
  3  4  1  0  0  0  0 
  4  5  1  0  0  0  0 
  5  6  3  0  0  0  0 
M  END
> <Name>
SUCCINONITRILE

> <Source>
DSSTox2DMolFile

> <Tox>
-2.109

> <CAS>
110-61-2

$$$$

  CDK

  6  5  0  0  0  0  0  0  0  0999 V2000
    2.3060   -0.6630    0.0000 C   0  0  0  0  0  0  0  0  0  0  0  0
    1.1530   -0.0000    0.0000 C   0  0  0  0  0  0  0  0  0  0  0  0
    3.4590   -0.0000    0.0000 C   0  0  0  0  0  0  0  0  0  0  0  0
    0.0000   -0.6630    0.0000 O   0  0  0  0  0  0  0  0  0  0  0  0
    4.6119   -0.6630    0.0000 C   0  0  0  0  0  0  0  0  0  0  0  0
    5.7649   -0.0000    0.0000 O   0  0  0  0  0  0  0  0  0  0  0  0
  1  2  1  0  0  0  0 
  1  3  1  0  0  0  0 
  2  4  1  0  0  0  0 
  3  5  1  0  0  0  0 
  5  6  1  0  0  0  0 
M  END
> <Name>
1,4-BUTANEDIOL

> <Source>
DSSTox2DMolFile

> <Tox>
-1.979

> <CAS>
110-63-4

$$$$

  CDK

  6  5  0  0  0  0  0  0  0  0999 V2000
    0.6655   -1.1499    0.0000 C   0  0  0  0  0  0  0  0  0  0  0  0
    0.0000   -0.0000    0.0000 O   0  0  0  0  0  0  0  0  0  0  0  0
    1.9964   -1.1499    0.0000 C   0  0  0  0  0  0  0  0  0  0  0  0
    3.3273   -1.1499    0.0000 C   0  0  0  0  0  0  0  0  0  0  0  0
    4.6583   -1.1499    0.0000 C   0  0  0  0  0  0  0  0  0  0  0  0
    5.3237   -0.0000    0.0000 O   0  0  0  0  0  0  0  0  0  0  0  0
  1  2  1  0  0  0  0 
  1  3  1  0  0  0  0 
  3  4  3  0  0  0  0 
  4  5  1  0  0  0  0 
  5  6  1  0  0  0  0 
M  END
> <Name>
2-BUTYNE-1,4-DIOL

> <Source>
DSSTox2DMolFile

> <Tox>
-3.255

> <CAS>
110-65-6

$$$$

  CDK

  6  5  0  0  0  0  0  0  0  0999 V2000
    4.4049    1.3937    1.7053 C   0  0  0  0  0  0  0  0  0  0  0  0
    2.9992    1.9365    1.4978 C   0  0  0  0  0  0  0  0  0  0  0  0
    5.3289    2.4691    2.2438 C   0  0  0  0  0  0  0  0  0  0  0  0
    2.0690    0.8638    0.9543 C   0  0  0  0  0  0  0  0  0  0  0  0
    7.0178    1.9050    2.6077 S   0  0  0  0  0  0  0  0  0  0  0  0
    0.6706    1.3997    0.7454 C   0  0  0  0  0  0  0  0  0  0  0  0
  1  2  1  0  0  0  0 
  1  3  1  0  0  0  0 
  2  4  1  0  0  0  0 
  3  5  1  0  0  0  0 
  4  6  1  0  0  0  0 
M  END
> <Name>
1-PENTANETHIOL

> <Source>
NIST3DMolFile

> <Tox>
1.140

> <CAS>
110-66-7

$$$$

  CDK

  6  5  0  0  0  0  0  0  0  0999 V2000
    0.0000   -0.6630    0.0000 O   0  0  0  0  0  0  0  0  0  0  0  0
    1.1530   -0.0000    0.0000 C   0  0  0  0  0  0  0  0  0  0  0  0
    2.3117   -0.6630    0.0000 C   0  0  0  0  0  0  0  0  0  0  0  0
    3.4532   -0.0000    0.0000 O   0  0  0  0  0  0  0  0  0  0  0  0
    4.6119   -0.6630    0.0000 C   0  0  0  0  0  0  0  0  0  0  0  0
    5.7649   -0.0000    0.0000 C   0  0  0  0  0  0  0  0  0  0  0  0
  1  2  1  0  0  0  0 
  2  3  1  0  0  0  0 
  4  3  1  0  0  0  0 
  4  5  1  0  0  0  0 
  5  6  1  0  0  0  0 
M  END
> <Name>
2-Ethoxyethanol

> <Source>
DSSTox2DMolFile

> <Tox>
0.725

> <CAS>
110-80-5

$$$$

  CDK

  6  5  0  0  0  0  0  0  0  0999 V2000
   -0.6563    0.7671    0.5578 S   0  0  0  0  0  0  0  0  0  0  0  0
    0.6565   -0.7682    0.5567 S   0  0  0  0  0  0  0  0  0  0  0  0
   -1.9463    0.4972   -0.7061 C   0  0  0  0  0  0  0  0  0  0  0  0
    1.9465   -0.4960   -0.7069 C   0  0  0  0  0  0  0  0  0  0  0  0
   -2.8489   -0.6859   -0.4760 C   0  0  0  0  0  0  0  0  0  0  0  0
    2.8484    0.6872   -0.4751 C   0  0  0  0  0  0  0  0  0  0  0  0
  1  2  1  0  0  0  0 
  1  3  1  0  0  0  0 
  2  4  1  0  0  0  0 
  3  5  1  0  0  0  0 
  4  6  1  0  0  0  0 
M  END
> <Name>
DIETHYL DISULFIDE

> <Source>
DougDB3DMolFile

> <Tox>
0.631

> <CAS>
110-81-6

$$$$

  CDK

  6  6  0  0  0  0  0  0  0  0999 V2000
   -0.6639   -1.2720   -0.0473 C   0  0  0  0  0  0  0  0  0  0  0  0
    0.6667   -1.2707    0.0476 C   0  0  0  0  0  0  0  0  0  0  0  0
   -1.4763   -0.0287   -0.1165 C   0  0  0  0  0  0  0  0  0  0  0  0
    1.4765   -0.0255    0.1159 C   0  0  0  0  0  0  0  0  0  0  0  0
   -0.6952    1.2053    0.3094 C   0  0  0  0  0  0  0  0  0  0  0  0
    0.6923    1.2070   -0.3090 C   0  0  0  0  0  0  0  0  0  0  0  0
  1  2  2  0  0  0  0 
  1  3  1  0  0  0  0 
  2  4  1  0  0  0  0 
  5  3  1  0  0  0  0 
  4  6  1  0  0  0  0 
  6  5  1  0  0  0  0 
M  END
> <Name>
CYCLOHEXENE

> <Source>
DougDB3DMolFile

> <Tox>
1.949

> <CAS>
110-83-8

$$$$

  CDK

  6  6  0  0  0  0  0  0  0  0999 V2000
    2.3036   -1.9950    0.0000 N   0  0  0  0  0  0  0  0  0  0  0  0
    1.1518   -2.6600    0.0000 C   0  0  0  0  0  0  0  0  0  0  0  0
    2.3036   -0.6650    0.0000 C   0  0  0  0  0  0  0  0  0  0  0  0
    0.0000   -1.9950    0.0000 C   0  0  0  0  0  0  0  0  0  0  0  0
    1.1518   -0.0000    0.0000 C   0  0  0  0  0  0  0  0  0  0  0  0
    0.0000   -0.6650    0.0000 C   0  0  0  0  0  0  0  0  0  0  0  0
  1  2  2  0  0  0  0 
  1  3  1  0  0  0  0 
  2  4  1  0  0  0  0 
  5  3  2  0  0  0  0 
  4  6  2  0  0  0  0 
  6  5  1  0  0  0  0 
M  END
> <Name>
PYRIDINE

> <Source>
DSSTox2DMolFile

> <Tox>
1.318

> <CAS>
110-86-1

$$$$

  CDK

  6  6  0  0  0  0  0  0  0  0999 V2000
    2.3036   -1.9950    0.0000 C   0  0  0  0  0  0  0  0  0  0  0  0
    1.1518   -2.6600    0.0000 O   0  0  0  0  0  0  0  0  0  0  0  0
    2.3036   -0.6650    0.0000 O   0  0  0  0  0  0  0  0  0  0  0  0
    0.0000   -1.9950    0.0000 C   0  0  0  0  0  0  0  0  0  0  0  0
    1.1518   -0.0000    0.0000 C   0  0  0  0  0  0  0  0  0  0  0  0
    0.0000   -0.6650    0.0000 O   0  0  0  0  0  0  0  0  0  0  0  0
  1  2  1  0  0  0  0 
  1  3  1  0  0  0  0 
  2  4  1  0  0  0  0 
  5  3  1  0  0  0  0 
  4  6  1  0  0  0  0 
  6  5  1  0  0  0  0 
M  END
> <Name>
1,3,5-TRIOXANE

> <Source>
DSSTox2DMolFile

> <Tox>
1.243

> <CAS>
110-88-3

$$$$

  CDK

  6  6  0  0  0  0  0  0  0  0999 V2000
    2.3036   -1.9950    0.0000 C   0  0  0  0  0  0  0  0  0  0  0  0
    1.1518   -2.6600    0.0000 C   0  0  0  0  0  0  0  0  0  0  0  0
    2.3036   -0.6650    0.0000 C   0  0  0  0  0  0  0  0  0  0  0  0
    0.0000   -1.9950    0.0000 C   0  0  0  0  0  0  0  0  0  0  0  0
    1.1518   -0.0000    0.0000 C   0  0  0  0  0  0  0  0  0  0  0  0
    0.0000   -0.6650    0.0000 N   0  0  0  0  0  0  0  0  0  0  0  0
  1  2  1  0  0  0  0 
  1  3  1  0  0  0  0 
  2  4  1  0  0  0  0 
  5  3  1  0  0  0  0 
  4  6  1  0  0  0  0 
  6  5  1  0  0  0  0 
M  END
> <Name>
PIPERIDINE

> <Source>
DSSTox2DMolFile

> <Tox>
1.507

> <CAS>
110-89-4

$$$$

  CDK

  6  6  0  0  0  0  0  0  0  0999 V2000
    2.3036   -1.9950    0.0000 C   0  0  0  0  0  0  0  0  0  0  0  0
    1.1518   -2.6600    0.0000 C   0  0  0  0  0  0  0  0  0  0  0  0
    2.3036   -0.6650    0.0000 N   0  0  0  0  0  0  0  0  0  0  0  0
    0.0000   -1.9950    0.0000 O   0  0  0  0  0  0  0  0  0  0  0  0
    1.1518   -0.0000    0.0000 C   0  0  0  0  0  0  0  0  0  0  0  0
    0.0000   -0.6650    0.0000 C   0  0  0  0  0  0  0  0  0  0  0  0
  1  2  1  0  0  0  0 
  1  3  1  0  0  0  0 
  2  4  1  0  0  0  0 
  5  3  1  0  0  0  0 
  4  6  1  0  0  0  0 
  6  5  1  0  0  0  0 
M  END
> <Name>
MORPHOLINE

> <Source>
DSSTox2DMolFile

> <Tox>
1.004

> <CAS>
110-91-8

$$$$

  CDK

  9  8  0  0  0  0  0  0  0  0999 V2000
    6.9090   -1.9967    0.0000 O   0  0  0  0  0  0  0  0  0  0  0  0
    5.7552   -1.3334    0.0000 C   0  0  0  0  0  0  0  0  0  0  0  0
    4.6083   -1.9967    0.0000 C   0  0  0  0  0  0  0  0  0  0  0  0
    5.7552   -0.0000    0.0000 O   0  0  0  0  0  0  0  0  0  0  0  0
    3.4545   -1.3334    0.0000 C   0  0  0  0  0  0  0  0  0  0  0  0
    2.3007   -1.9967    0.0000 C   0  0  0  0  0  0  0  0  0  0  0  0
    1.1538   -1.3334    0.0000 C   0  0  0  0  0  0  0  0  0  0  0  0
    0.0000   -1.9967    0.0000 O   0  0  0  0  0  0  0  0  0  0  0  0
    1.1538   -0.0000    0.0000 O   0  0  0  0  0  0  0  0  0  0  0  0
  1  2  1  0  0  0  0 
  2  3  1  0  0  0  0 
  2  4  2  0  0  0  0 
  3  5  1  0  0  0  0 
  5  6  1  0  0  0  0 
  6  7  1  0  0  0  0 
  7  8  1  0  0  0  0 
  7  9  2  0  0  0  0 
M  END
> <Name>
PENTANEDIOC ACID

> <Source>
DSSTox2DMolFile

> <Tox>
-5.541

> <CAS>
110-94-1

$$$$

  CDK

  9  8  0  0  0  0  0  0  0  0999 V2000
    3.4545   -1.3334    0.0000 N   0  0  0  0  0  0  0  0  0  0  0  0
    4.6083   -1.9967    0.0000 C   0  0  0  0  0  0  0  0  0  0  0  0
    2.3007   -1.9967    0.0000 C   0  0  0  0  0  0  0  0  0  0  0  0
    5.7552   -1.3334    0.0000 C   0  0  0  0  0  0  0  0  0  0  0  0
    1.1538   -1.3334    0.0000 C   0  0  0  0  0  0  0  0  0  0  0  0
    5.7552   -0.0000    0.0000 C   0  0  0  0  0  0  0  0  0  0  0  0
    6.9090   -1.9967    0.0000 C   0  0  0  0  0  0  0  0  0  0  0  0
    0.0000   -1.9967    0.0000 C   0  0  0  0  0  0  0  0  0  0  0  0
    1.1538   -0.0000    0.0000 C   0  0  0  0  0  0  0  0  0  0  0  0
  1  2  1  0  0  0  0 
  1  3  1  0  0  0  0 
  2  4  1  0  0  0  0 
  3  5  1  0  0  0  0 
  4  6  1  0  0  0  0 
  4  7  1  0  0  0  0 
  5  8  1  0  0  0  0 
  5  9  1  0  0  0  0 
M  END
> <Name>
DIISOBUTYLAMINE

> <Source>
DSSTox2DMolFile

> <Tox>
0.862

> <CAS>
110-96-3

$$$$

  CDK

  9  8  0  0  0  0  0  0  0  0999 V2000
    6.9090   -1.9967    0.0000 C   0  0  0  0  0  0  0  0  0  0  0  0
    5.7552   -1.3334    0.0000 C   0  0  0  0  0  0  0  0  0  0  0  0
    4.6083   -1.9967    0.0000 C   0  0  0  0  0  0  0  0  0  0  0  0
    5.7552   -0.0000    0.0000 O   0  0  0  0  0  0  0  0  0  0  0  0
    3.4545   -1.3334    0.0000 N   0  0  0  0  0  0  0  0  0  0  0  0
    2.3007   -1.9967    0.0000 C   0  0  0  0  0  0  0  0  0  0  0  0
    1.1538   -1.3334    0.0000 C   0  0  0  0  0  0  0  0  0  0  0  0
    0.0000   -1.9967    0.0000 C   0  0  0  0  0  0  0  0  0  0  0  0
    1.1538   -0.0000    0.0000 O   0  0  0  0  0  0  0  0  0  0  0  0
  1  2  1  0  0  0  0 
  2  3  1  0  0  0  0 
  2  4  1  0  0  0  0 
  3  5  1  0  0  0  0 
  5  6  1  0  0  0  0 
  6  7  1  0  0  0  0 
  7  8  1  0  0  0  0 
  7  9  1  0  0  0  0 
M  END
> <Name>
DIISOPROPANOLAMINE

> <Source>
DSSTox2DMolFile

> <Tox>
-3.903

> <CAS>
110-97-4

$$$$

  CDK

  9  8  0  0  0  0  0  0  0  0999 V2000
    1.9962   -2.3033    0.0000 O   0  0  0  0  0  0  0  0  0  0  0  0
    1.3308   -1.1553    0.0000 C   0  0  0  0  0  0  0  0  0  0  0  0
    0.0000   -1.1553    0.0000 O   0  0  0  0  0  0  0  0  0  0  0  0
    1.9962   -0.0000    0.0000 C   0  0  0  0  0  0  0  0  0  0  0  0
    3.3271   -0.0000    0.0000 C   0  0  0  0  0  0  0  0  0  0  0  0
    3.9852   -1.1553    0.0000 C   0  0  0  0  0  0  0  0  0  0  0  0
    5.3160   -1.1553    0.0000 C   0  0  0  0  0  0  0  0  0  0  0  0
    5.9814   -2.3033    0.0000 C   0  0  0  0  0  0  0  0  0  0  0  0
    7.3122   -2.3033    0.0000 C   0  0  0  0  0  0  0  0  0  0  0  0
  1  2  2  0  0  0  0 
  2  3  1  0  0  0  0 
  2  4  1  0  0  0  0 
  4  5  1  0  0  0  0 
  5  6  1  0  0  0  0 
  6  7  1  0  0  0  0 
  7  8  1  0  0  0  0 
  8  9  1  0  0  0  0 
M  END
> <Name>
HEPTANOIC ACID

> <Source>
DSSTox2DMolFile

> <Tox>
-1.971

> <CAS>
111-14-8

$$$$

  CDK

  9  8  0  0  0  0  0  0  0  0999 V2000
    1.9962   -2.3033    0.0000 C   0  0  0  0  0  0  0  0  0  0  0  0
    1.3308   -1.1553    0.0000 C   0  0  0  0  0  0  0  0  0  0  0  0
    0.0000   -1.1553    0.0000 O   0  0  0  0  0  0  0  0  0  0  0  0
    1.9962   -0.0000    0.0000 O   0  0  0  0  0  0  0  0  0  0  0  0
    3.3271   -0.0000    0.0000 C   0  0  0  0  0  0  0  0  0  0  0  0
    3.9852   -1.1553    0.0000 C   0  0  0  0  0  0  0  0  0  0  0  0
    5.3160   -1.1553    0.0000 O   0  0  0  0  0  0  0  0  0  0  0  0
    5.9814   -2.3033    0.0000 C   0  0  0  0  0  0  0  0  0  0  0  0
    7.3122   -2.3033    0.0000 C   0  0  0  0  0  0  0  0  0  0  0  0
  1  2  1  0  0  0  0 
  2  3  2  0  0  0  0 
  2  4  1  0  0  0  0 
  4  5  1  0  0  0  0 
  5  6  1  0  0  0  0 
  6  7  1  0  0  0  0 
  7  8  1  0  0  0  0 
  8  9  1  0  0  0  0 
M  END
> <Name>
ETHOXYETHYLACETATE

> <Source>
DSSTox2DMolFile

> <Tox>
0.369

> <CAS>
111-15-9

$$$$

  CDK

 11 10  0  0  0  0  0  0  0  0999 V2000
    7.9743   -2.3046    0.0000 O   0  0  0  0  0  0  0  0  0  0  0  0
    6.6426   -2.3046    0.0000 C   0  0  0  0  0  0  0  0  0  0  0  0
    5.9808   -3.4529    0.0000 C   0  0  0  0  0  0  0  0  0  0  0  0
    5.9808   -1.1483    0.0000 O   0  0  0  0  0  0  0  0  0  0  0  0
    4.6490   -3.4529    0.0000 C   0  0  0  0  0  0  0  0  0  0  0  0
    3.9872   -2.3046    0.0000 C   0  0  0  0  0  0  0  0  0  0  0  0
    2.6555   -2.3046    0.0000 C   0  0  0  0  0  0  0  0  0  0  0  0
    1.9936   -1.1483    0.0000 C   0  0  0  0  0  0  0  0  0  0  0  0
    0.6619   -1.1483    0.0000 C   0  0  0  0  0  0  0  0  0  0  0  0
    0.0000   -2.3046    0.0000 O   0  0  0  0  0  0  0  0  0  0  0  0
    0.0000   -0.0000    0.0000 O   0  0  0  0  0  0  0  0  0  0  0  0
  1  2  1  0  0  0  0 
  2  3  1  0  0  0  0 
  2  4  2  0  0  0  0 
  3  5  1  0  0  0  0 
  5  6  1  0  0  0  0 
  6  7  1  0  0  0  0 
  7  8  1  0  0  0  0 
  8  9  1  0  0  0  0 
  9 10  1  0  0  0  0 
  9 11  2  0  0  0  0 
M  END
> <Name>
PIMELIC ACID

> <Source>
DSSTox2DMolFile

> <Tox>
-7.046

> <CAS>
111-16-0

$$$$

  CDK

 14 13  0  0  0  0  0  0  0  0999 V2000
    1.1505   -1.3275    0.0000 C   0  0  0  0  0  0  0  0  0  0  0  0
    2.2884   -1.9976    0.0000 C   0  0  0  0  0  0  0  0  0  0  0  0
    0.0000   -1.9976    0.0000 O   0  0  0  0  0  0  0  0  0  0  0  0
    1.1505   -0.0000    0.0000 O   0  0  0  0  0  0  0  0  0  0  0  0
    3.4389   -1.3275    0.0000 C   0  0  0  0  0  0  0  0  0  0  0  0
    4.5895   -1.9976    0.0000 C   0  0  0  0  0  0  0  0  0  0  0  0
    5.7400   -1.3275    0.0000 C   0  0  0  0  0  0  0  0  0  0  0  0
    6.9032   -1.9976    0.0000 C   0  0  0  0  0  0  0  0  0  0  0  0
    8.0537   -1.3275    0.0000 C   0  0  0  0  0  0  0  0  0  0  0  0
    9.2042   -1.9976    0.0000 C   0  0  0  0  0  0  0  0  0  0  0  0
   10.3547   -1.3275    0.0000 C   0  0  0  0  0  0  0  0  0  0  0  0
   11.4926   -1.9976    0.0000 C   0  0  0  0  0  0  0  0  0  0  0  0
   12.6431   -1.3275    0.0000 O   0  0  0  0  0  0  0  0  0  0  0  0
   11.4926   -3.3251    0.0000 O   0  0  0  0  0  0  0  0  0  0  0  0
  1  2  1  0  0  0  0 
  1  3  1  0  0  0  0 
  1  4  2  0  0  0  0 
  2  5  1  0  0  0  0 
  5  6  1  0  0  0  0 
  6  7  1  0  0  0  0 
  7  8  1  0  0  0  0 
  8  9  1  0  0  0  0 
  9 10  1  0  0  0  0 
 10 11  1  0  0  0  0 
 11 12  1  0  0  0  0 
 12 13  1  0  0  0  0 
 12 14  2  0  0  0  0 
M  END
> <Name>
DECANEDIOIC ACID

> <Source>
DSSTox2DMolFile

> <Tox>
-7.256

> <CAS>
111-20-6

$$$$

  CDK

  7  6  0  0  0  0  0  0  0  0999 V2000
    0.0000   -0.6638    0.0000 C   0  0  0  0  0  0  0  0  0  0  0  0
    1.1548   -0.0000    0.0000 C   0  0  0  0  0  0  0  0  0  0  0  0
    2.3027   -0.6638    0.0000 C   0  0  0  0  0  0  0  0  0  0  0  0
    3.4575   -0.0000    0.0000 C   0  0  0  0  0  0  0  0  0  0  0  0
    4.6122   -0.6638    0.0000 C   0  0  0  0  0  0  0  0  0  0  0  0
    5.7601   -0.0000    0.0000 C   0  0  0  0  0  0  0  0  0  0  0  0
    6.9149   -0.6638    0.0000 N   0  0  0  0  0  0  0  0  0  0  0  0
  1  2  1  0  0  0  0 
  2  3  1  0  0  0  0 
  3  4  1  0  0  0  0 
  4  5  1  0  0  0  0 
  5  6  1  0  0  0  0 
  6  7  1  0  0  0  0 
M  END
> <Name>
N-HEXYLAMINE

> <Source>
DSSTox2DMolFile

> <Tox>
0.954

> <CAS>
111-26-2

$$$$

  CDK

  7  6  0  0  0  0  0  0  0  0999 V2000
    0.0000   -0.6638    0.0000 C   0  0  0  0  0  0  0  0  0  0  0  0
    1.1548   -0.0000    0.0000 C   0  0  0  0  0  0  0  0  0  0  0  0
    2.3027   -0.6638    0.0000 C   0  0  0  0  0  0  0  0  0  0  0  0
    3.4575   -0.0000    0.0000 C   0  0  0  0  0  0  0  0  0  0  0  0
    4.6122   -0.6638    0.0000 C   0  0  0  0  0  0  0  0  0  0  0  0
    5.7601   -0.0000    0.0000 C   0  0  0  0  0  0  0  0  0  0  0  0
    6.9149   -0.6638    0.0000 O   0  0  0  0  0  0  0  0  0  0  0  0
  1  2  1  0  0  0  0 
  2  3  1  0  0  0  0 
  3  4  1  0  0  0  0 
  4  5  1  0  0  0  0 
  5  6  1  0  0  0  0 
  6  7  1  0  0  0  0 
M  END
> <Name>
1-HEXANOL

> <Source>
DSSTox2DMolFile

> <Tox>
-0.032

> <CAS>
111-27-3

$$$$

  CDK

  7  6  0  0  0  0  0  0  0  0999 V2000
    1.8338    0.6392   -0.0344 C   0  0  0  0  0  0  0  0  0  0  0  0
    0.6163   -0.2649   -0.0122 C   0  0  0  0  0  0  0  0  0  0  0  0
    3.4264   -0.2319    0.0497 S   0  0  0  0  0  0  0  0  0  0  0  0
   -0.6684    0.5499   -0.0181 C   0  0  0  0  0  0  0  0  0  0  0  0
   -1.8910   -0.3530    0.0042 C   0  0  0  0  0  0  0  0  0  0  0  0
   -3.1776    0.4570   -0.0032 C   0  0  0  0  0  0  0  0  0  0  0  0
   -4.3951   -0.4391    0.0201 C   0  0  0  0  0  0  0  0  0  0  0  0
  1  2  1  0  0  0  0 
  1  3  1  0  0  0  0 
  2  4  1  0  0  0  0 
  4  5  1  0  0  0  0 
  5  6  1  0  0  0  0 
  6  7  1  0  0  0  0 
M  END
> <Name>
1-HEXANETHIOL

> <Source>
DougDB3DMolFile

> <Tox>
0.623

> <CAS>
111-31-9

$$$$

  CDK

  7  6  0  0  0  0  0  0  0  0999 V2000
   -1.2459    0.7789    0.0005 O   0  0  0  0  0  0  0  0  0  0  0  0
   -2.5549    0.4024    0.0004 C   0  0  0  0  0  0  0  0  0  0  0  0
   -0.2650   -0.2569   -0.0007 C   0  0  0  0  0  0  0  0  0  0  0  0
   -3.0632   -0.8303   -0.0002 C   0  0  0  0  0  0  0  0  0  0  0  0
    1.0965    0.4310   -0.0009 C   0  0  0  0  0  0  0  0  0  0  0  0
    2.2118   -0.6021    0.0011 C   0  0  0  0  0  0  0  0  0  0  0  0
    3.5724    0.0571   -0.0001 C   0  0  0  0  0  0  0  0  0  0  0  0
  1  2  1  0  0  0  0 
  1  3  1  0  0  0  0 
  2  4  2  0  0  0  0 
  3  5  1  0  0  0  0 
  5  6  1  0  0  0  0 
  6  7  1  0  0  0  0 
M  END
> <Name>
BUTYL VINYL ETHER

> <Source>
DougDB3DMolFile

> <Tox>
1.691

> <CAS>
111-34-2

$$$$

  CDK

  7  6  0  0  0  0  0  0  0  0999 V2000
    3.4514   -0.6696    0.0000 C   0  0  0  0  0  0  0  0  0  0  0  0
    4.6042   -0.0000    0.0000 C   0  0  0  0  0  0  0  0  0  0  0  0
    2.2987   -0.0000    0.0000 N   0  0  0  0  0  0  0  0  0  0  0  0
    5.7501   -0.6696    0.0000 C   0  0  0  0  0  0  0  0  0  0  0  0
    1.1528   -0.6696    0.0000 C   0  0  0  0  0  0  0  0  0  0  0  0
    6.9029   -0.0000    0.0000 C   0  0  0  0  0  0  0  0  0  0  0  0
    0.0000   -1.3254    0.0000 O   0  0  0  0  0  0  0  0  0  0  0  0
  1  2  1  0  0  0  0 
  1  3  1  0  0  0  0 
  2  4  1  0  0  0  0 
  5  3  2  0  0  0  0 
  4  6  1  0  0  0  0 
  5  7  2  0  0  0  0 
M  END
> <Name>
BUTYL ISOCYANATE

> <Source>
DSSTox2DMolFile

> <Tox>
1.246

> <CAS>
111-36-4

$$$$

  CDK

  7  6  0  0  0  0  0  0  0  0999 V2000
    3.4575   -0.0000    0.0000 N   0  0  0  0  0  0  0  0  0  0  0  0
    2.3027   -0.6638    0.0000 C   0  0  0  0  0  0  0  0  0  0  0  0
    4.6122   -0.6638    0.0000 C   0  0  0  0  0  0  0  0  0  0  0  0
    1.1548   -0.0000    0.0000 C   0  0  0  0  0  0  0  0  0  0  0  0
    5.7601   -0.0000    0.0000 C   0  0  0  0  0  0  0  0  0  0  0  0
    0.0000   -0.6638    0.0000 N   0  0  0  0  0  0  0  0  0  0  0  0
    6.9149   -0.6638    0.0000 N   0  0  0  0  0  0  0  0  0  0  0  0
  1  2  1  0  0  0  0 
  1  3  1  0  0  0  0 
  2  4  1  0  0  0  0 
  3  5  1  0  0  0  0 
  4  6  1  0  0  0  0 
  5  7  1  0  0  0  0 
M  END
> <Name>
DIETHYLENETRIAMINE

> <Source>
DSSTox2DMolFile

> <Tox>
-0.635

> <CAS>
111-40-0

$$$$

  CDK

  7  6  0  0  0  0  0  0  0  0999 V2000
    0.0000   -0.6638    0.0000 O   0  0  0  0  0  0  0  0  0  0  0  0
    1.1548   -0.0000    0.0000 C   0  0  0  0  0  0  0  0  0  0  0  0
    2.3027   -0.6638    0.0000 C   0  0  0  0  0  0  0  0  0  0  0  0
    3.4575   -0.0000    0.0000 N   0  0  0  0  0  0  0  0  0  0  0  0
    4.6122   -0.6638    0.0000 C   0  0  0  0  0  0  0  0  0  0  0  0
    5.7601   -0.0000    0.0000 C   0  0  0  0  0  0  0  0  0  0  0  0
    6.9149   -0.6638    0.0000 O   0  0  0  0  0  0  0  0  0  0  0  0
  1  2  1  0  0  0  0 
  2  3  1  0  0  0  0 
  3  4  1  0  0  0  0 
  4  5  1  0  0  0  0 
  5  6  1  0  0  0  0 
  6  7  1  0  0  0  0 
M  END
> <Name>
DIETHANOLAMINE

> <Source>
DSSTox2DMolFile

> <Tox>
-3.553

> <CAS>
111-42-2

$$$$

  CDK

  7  6  0  0  0  0  0  0  0  0999 V2000
    1.7229    2.4489    4.4972 C   0  0  0  0  0  0  0  0  0  0  0  0
    1.4863    1.4871    3.4909 O   0  0  0  0  0  0  0  0  0  0  0  0
    2.8875    3.3932    4.2003 C   0  0  0  0  0  0  0  0  0  0  0  0
    1.0768    2.0380    2.2439 C   0  0  0  0  0  0  0  0  0  0  0  0
    4.2267    2.6962    4.2450 C   0  0  0  0  0  0  0  0  0  0  0  0
    1.3388    1.0002    1.1568 C   0  0  0  0  0  0  0  0  0  0  0  0
    2.7967    0.9418    0.7591 C   0  0  0  0  0  0  0  0  0  0  0  0
  1  2  1  0  0  0  0 
  1  3  1  0  0  0  0 
  2  4  1  0  0  0  0 
  3  5  1  0  0  0  0 
  4  6  1  0  0  0  0 
  6  7  1  0  0  0  0 
M  END
> <Name>
DI(N-PROPYL) ETHER

> <Source>
NIST3DMolFile

> <Tox>
1.796

> <CAS>
111-43-3

$$$$

  CDK

  7  6  0  0  0  0  0  0  0  0999 V2000
    0.0000   -0.6638    0.0000 Cl  0  0  0  0  0  0  0  0  0  0  0  0
    1.1548   -0.0000    0.0000 C   0  0  0  0  0  0  0  0  0  0  0  0
    2.3027   -0.6638    0.0000 C   0  0  0  0  0  0  0  0  0  0  0  0
    3.4575   -0.0000    0.0000 O   0  0  0  0  0  0  0  0  0  0  0  0
    4.6122   -0.6638    0.0000 C   0  0  0  0  0  0  0  0  0  0  0  0
    5.7601   -0.0000    0.0000 C   0  0  0  0  0  0  0  0  0  0  0  0
    6.9149   -0.6638    0.0000 Cl  0  0  0  0  0  0  0  0  0  0  0  0
  1  2  1  0  0  0  0 
  2  3  1  0  0  0  0 
  3  4  1  0  0  0  0 
  4  5  1  0  0  0  0 
  5  6  1  0  0  0  0 
  6  7  1  0  0  0  0 
M  END
> <Name>
BIS(2-CHLOROETHYL) ETHER

> <Source>
DSSTox2DMolFile

> <Tox>
0.190

> <CAS>
111-44-4

$$$$

  CDK

  7  6  0  0  0  0  0  0  0  0999 V2000
    0.0000   -0.6638    0.0000 O   0  0  0  0  0  0  0  0  0  0  0  0
    1.1548   -0.0000    0.0000 C   0  0  0  0  0  0  0  0  0  0  0  0
    2.3027   -0.6638    0.0000 C   0  0  0  0  0  0  0  0  0  0  0  0
    3.4575   -0.0000    0.0000 O   0  0  0  0  0  0  0  0  0  0  0  0
    4.6122   -0.6638    0.0000 C   0  0  0  0  0  0  0  0  0  0  0  0
    5.7601   -0.0000    0.0000 C   0  0  0  0  0  0  0  0  0  0  0  0
    6.9149   -0.6638    0.0000 O   0  0  0  0  0  0  0  0  0  0  0  0
  1  2  1  0  0  0  0 
  2  3  1  0  0  0  0 
  3  4  1  0  0  0  0 
  4  5  1  0  0  0  0 
  5  6  1  0  0  0  0 
  6  7  1  0  0  0  0 
M  END
> <Name>
DIETHYLENE GLYCOL

> <Source>
DSSTox2DMolFile

> <Tox>
-2.244

> <CAS>
111-46-6

$$$$

  CDK

  7  6  0  0  0  0  0  0  0  0999 V2000
    1.1578   -0.0000    0.0000 C   0  0  0  0  0  0  0  0  0  0  0  0
    2.3156   -0.6586    0.0000 C   0  0  0  0  0  0  0  0  0  0  0  0
    0.0000   -0.6586    0.0000 O   0  0  0  0  0  0  0  0  0  0  0  0
    3.4595   -0.0000    0.0000 S   0  0  0  0  0  0  0  0  0  0  0  0
    4.6173   -0.6586    0.0000 C   0  0  0  0  0  0  0  0  0  0  0  0
    5.7750   -0.0000    0.0000 C   0  0  0  0  0  0  0  0  0  0  0  0
    6.9328   -0.6586    0.0000 O   0  0  0  0  0  0  0  0  0  0  0  0
  1  2  1  0  0  0  0 
  1  3  1  0  0  0  0 
  2  4  1  0  0  0  0 
  5  4  1  0  0  0  0 
  6  5  1  0  0  0  0 
  6  7  1  0  0  0  0 
M  END
> <Name>
2,2'-THIOBISETHANOL

> <Source>
DSSTox2DMolFile

> <Tox>
-2.491

> <CAS>
111-48-8

$$$$

  CDK

  7  7  0  0  0  0  0  0  0  0999 V2000
    1.8733   -0.0000    0.0000 N   0  0  0  0  0  0  0  0  0  0  0  0
    2.9044   -0.8572    0.0000 C   0  0  0  0  0  0  0  0  0  0  0  0
    0.6084   -0.2817    0.0000 C   0  0  0  0  0  0  0  0  0  0  0  0
    2.9044   -2.2000    0.0000 C   0  0  0  0  0  0  0  0  0  0  0  0
    0.0000   -1.5136    0.0000 C   0  0  0  0  0  0  0  0  0  0  0  0
    1.8733   -2.9973    0.0000 C   0  0  0  0  0  0  0  0  0  0  0  0
    0.6084   -2.7305    0.0000 C   0  0  0  0  0  0  0  0  0  0  0  0
  1  2  1  0  0  0  0 
  1  3  1  0  0  0  0 
  2  4  1  0  0  0  0 
  5  3  1  0  0  0  0 
  4  6  1  0  0  0  0 
  7  5  1  0  0  0  0 
  6  7  1  0  0  0  0 
M  END
> <Name>
HEXAMETHYLENEIMINE

> <Source>
DSSTox2DMolFile

> <Tox>
0.908

> <CAS>
111-49-9

$$$$

  CDK

 22 21  0  0  0  0  0  0  0  0999 V2000
    5.2041    1.5012    0.0000 C   0  0  0  0  0  0  0  0  0  0  0  0
    4.3034    1.0008    0.0000 C   0  0  0  0  0  0  0  0  0  0  0  0
    6.0547    1.0008    0.0000 C   0  0  0  0  0  0  0  0  0  0  0  0
    3.4527    1.5012    0.0000 C   0  0  0  0  0  0  0  0  0  0  0  0
    6.9054    1.5012    0.0000 C   0  0  0  0  0  0  0  0  0  0  0  0
    2.6020    1.0008    0.0000 C   0  0  0  0  0  0  0  0  0  0  0  0
    7.8061    1.0008    0.0000 C   0  0  0  0  0  0  0  0  0  0  0  0
    1.7013    1.5012    0.0000 O   0  0  0  0  0  0  0  0  0  0  0  0
    2.6020    0.0000    0.0000 O   0  0  0  0  0  0  0  0  0  0  0  0
    8.6568    1.5012    0.0000 C   0  0  0  0  0  0  0  0  0  0  0  0
    0.8507    1.0008    0.0000 C   0  0  0  0  0  0  0  0  0  0  0  0
    9.5075    1.0008    0.0000 C   0  0  0  0  0  0  0  0  0  0  0  0
    0.0000    1.5012    0.0000 C   0  0  0  0  0  0  0  0  0  0  0  0
   10.4082    1.5012    0.0000 C   0  0  0  0  0  0  0  0  0  0  0  0
   11.2588    1.0008    0.0000 C   0  0  0  0  0  0  0  0  0  0  0  0
   12.1095    1.5012    0.0000 C   0  0  0  0  0  0  0  0  0  0  0  0
   13.0102    1.0008    0.0000 C   0  0  0  0  0  0  0  0  0  0  0  0
   13.8609    1.5012    0.0000 C   0  0  0  0  0  0  0  0  0  0  0  0
   14.7115    1.0008    0.0000 C   0  0  0  0  0  0  0  0  0  0  0  0
   15.6122    1.5012    0.0000 C   0  0  0  0  0  0  0  0  0  0  0  0
   16.4629    1.0008    0.0000 C   0  0  0  0  0  0  0  0  0  0  0  0
   17.3136    1.5012    0.0000 C   0  0  0  0  0  0  0  0  0  0  0  0
  1  2  1  0  0  0  0 
  1  3  1  0  0  0  0 
  2  4  1  0  0  0  0 
  3  5  1  0  0  0  0 
  4  6  1  0  0  0  0 
  5  7  1  0  0  0  0 
  6  8  1  0  0  0  0 
  6  9  2  0  0  0  0 
  7 10  1  0  0  0  0 
  8 11  1  0  0  0  0 
 10 12  1  0  0  0  0 
 11 13  1  0  0  0  0 
 12 14  1  0  0  0  0 
 14 15  1  0  0  0  0 
 15 16  1  0  0  0  0 
 16 17  1  0  0  0  0 
 17 18  1  0  0  0  0 
 18 19  1  0  0  0  0 
 19 20  1  0  0  0  0 
 20 21  1  0  0  0  0 
 21 22  1  0  0  0  0 
M  END
> <Name>
ETHYL STEARATE

> <Source>
NIST2DMolFile

> <Tox>
-5.587

> <CAS>
111-61-5

$$$$

  CDK

  8  7  0  0  0  0  0  0  0  0999 V2000
    8.0744   -0.0000    0.0000 C   0  0  0  0  0  0  0  0  0  0  0  0
    6.9197   -0.6621    0.0000 C   0  0  0  0  0  0  0  0  0  0  0  0
    5.7651   -0.0000    0.0000 C   0  0  0  0  0  0  0  0  0  0  0  0
    4.6105   -0.6621    0.0000 C   0  0  0  0  0  0  0  0  0  0  0  0
    3.4639   -0.0000    0.0000 C   0  0  0  0  0  0  0  0  0  0  0  0
    2.3093   -0.6621    0.0000 C   0  0  0  0  0  0  0  0  0  0  0  0
    1.1546   -0.0000    0.0000 C   0  0  0  0  0  0  0  0  0  0  0  0
    0.0000   -0.6621    0.0000 N   0  0  0  0  0  0  0  0  0  0  0  0
  1  2  1  0  0  0  0 
  2  3  1  0  0  0  0 
  3  4  1  0  0  0  0 
  4  5  1  0  0  0  0 
  5  6  1  0  0  0  0 
  6  7  1  0  0  0  0 
  7  8  1  0  0  0  0 
M  END
> <Name>
HEPTYLAMINE

> <Source>
DSSTox2DMolFile

> <Tox>
0.438

> <CAS>
111-68-2

$$$$

  CDK

  8  7  0  0  0  0  0  0  0  0999 V2000
    8.0744   -0.0000    0.0000 C   0  0  0  0  0  0  0  0  0  0  0  0
    6.9197   -0.6621    0.0000 C   0  0  0  0  0  0  0  0  0  0  0  0
    5.7651   -0.0000    0.0000 C   0  0  0  0  0  0  0  0  0  0  0  0
    4.6105   -0.6621    0.0000 C   0  0  0  0  0  0  0  0  0  0  0  0
    3.4639   -0.0000    0.0000 C   0  0  0  0  0  0  0  0  0  0  0  0
    2.3093   -0.6621    0.0000 C   0  0  0  0  0  0  0  0  0  0  0  0
    1.1546   -0.0000    0.0000 C   0  0  0  0  0  0  0  0  0  0  0  0
    0.0000   -0.6621    0.0000 O   0  0  0  0  0  0  0  0  0  0  0  0
  1  2  1  0  0  0  0 
  2  3  1  0  0  0  0 
  3  4  1  0  0  0  0 
  4  5  1  0  0  0  0 
  5  6  1  0  0  0  0 
  6  7  1  0  0  0  0 
  7  8  1  0  0  0  0 
M  END
> <Name>
1-HEPTANOL

> <Source>
DSSTox2DMolFile

> <Tox>
-0.666

> <CAS>
111-70-6

$$$$

  CDK

  8  7  0  0  0  0  0  0  0  0999 V2000
    8.0744   -0.0000    0.0000 C   0  0  0  0  0  0  0  0  0  0  0  0
    6.9197   -0.6621    0.0000 C   0  0  0  0  0  0  0  0  0  0  0  0
    5.7651   -0.0000    0.0000 C   0  0  0  0  0  0  0  0  0  0  0  0
    4.6105   -0.6621    0.0000 C   0  0  0  0  0  0  0  0  0  0  0  0
    3.4639   -0.0000    0.0000 C   0  0  0  0  0  0  0  0  0  0  0  0
    2.3093   -0.6621    0.0000 C   0  0  0  0  0  0  0  0  0  0  0  0
    1.1546   -0.0000    0.0000 C   0  0  0  0  0  0  0  0  0  0  0  0
    0.0000   -0.6621    0.0000 O   0  0  0  0  0  0  0  0  0  0  0  0
  1  2  1  0  0  0  0 
  2  3  1  0  0  0  0 
  3  4  1  0  0  0  0 
  4  5  1  0  0  0  0 
  5  6  1  0  0  0  0 
  6  7  1  0  0  0  0 
  7  8  2  0  0  0  0 
M  END
> <Name>
HEPTANAL

> <Source>
DSSTox2DMolFile

> <Tox>
0.547

> <CAS>
111-71-7

$$$$

  CDK

  8  7  0  0  0  0  0  0  0  0999 V2000
    0.0000   -0.0000    0.0000 O   0  0  0  0  0  0  0  0  0  0  0  0
    1.1546   -0.6621    0.0000 C   0  0  0  0  0  0  0  0  0  0  0  0
    2.3092   -0.0000    0.0000 C   0  0  0  0  0  0  0  0  0  0  0  0
    3.4639   -0.6621    0.0000 O   0  0  0  0  0  0  0  0  0  0  0  0
    4.5943   -0.0000    0.0000 C   0  0  0  0  0  0  0  0  0  0  0  0
    5.7650   -0.6621    0.0000 C   0  0  0  0  0  0  0  0  0  0  0  0
    6.9035   -0.0000    0.0000 C   0  0  0  0  0  0  0  0  0  0  0  0
    8.0743   -0.6621    0.0000 C   0  0  0  0  0  0  0  0  0  0  0  0
  1  2  1  0  0  0  0 
  2  3  1  0  0  0  0 
  4  3  1  0  0  0  0 
  4  5  1  0  0  0  0 
  5  6  1  0  0  0  0 
  6  7  1  0  0  0  0 
  7  8  1  0  0  0  0 
M  END
> <Name>
2-BUTOXYETHANOL

> <Source>
DSSTox2DMolFile

> <Tox>
-0.056

> <CAS>
111-76-2

$$$$

  CDK

  8  7  0  0  0  0  0  0  0  0999 V2000
    4.6105   -0.6621    0.0000 O   0  0  0  0  0  0  0  0  0  0  0  0
    3.4639   -0.0000    0.0000 C   0  0  0  0  0  0  0  0  0  0  0  0
    5.7651   -0.0000    0.0000 C   0  0  0  0  0  0  0  0  0  0  0  0
    2.3093   -0.6621    0.0000 C   0  0  0  0  0  0  0  0  0  0  0  0
    6.9197   -0.6621    0.0000 C   0  0  0  0  0  0  0  0  0  0  0  0
    1.1546   -0.0000    0.0000 O   0  0  0  0  0  0  0  0  0  0  0  0
    8.0744   -0.0000    0.0000 O   0  0  0  0  0  0  0  0  0  0  0  0
    0.0000   -0.6621    0.0000 C   0  0  0  0  0  0  0  0  0  0  0  0
  1  2  1  0  0  0  0 
  1  3  1  0  0  0  0 
  2  4  1  0  0  0  0 
  3  5  1  0  0  0  0 
  4  6  1  0  0  0  0 
  5  7  1  0  0  0  0 
  6  8  1  0  0  0  0 
M  END
> <Name>
DIETHYLENE GLYCOL MONOMETHYL ETHER

> <Source>
DSSTox2DMolFile

> <Tox>
-0.602

> <CAS>
111-77-3

$$$$

  CDK

  8  8  0  0  0  0  0  0  0  0999 V2000
    2.2630   -0.0000    0.0000 C   0  0  0  0  0  0  0  0  0  0  0  0
    3.2328   -0.9860    0.0000 C   0  0  0  0  0  0  0  0  0  0  0  0
    0.9860   -0.0000    0.0000 C   0  0  0  0  0  0  0  0  0  0  0  0
    3.2328   -2.2630    0.0000 C   0  0  0  0  0  0  0  0  0  0  0  0
    0.0000   -0.9860    0.0000 C   0  0  0  0  0  0  0  0  0  0  0  0
    2.2630   -3.2328    0.0000 C   0  0  0  0  0  0  0  0  0  0  0  0
    0.0000   -2.2630    0.0000 C   0  0  0  0  0  0  0  0  0  0  0  0
    0.9860   -3.2328    0.0000 C   0  0  0  0  0  0  0  0  0  0  0  0
  1  2  2  0  0  0  0 
  1  3  1  0  0  0  0 
  2  4  1  0  0  0  0 
  5  3  1  0  0  0  0 
  4  6  1  0  0  0  0 
  7  5  1  0  0  0  0 
  6  8  1  0  0  0  0 
  8  7  2  0  0  0  0 
M  END
> <Name>
CYCLOOCTA-1,5-DIENE

> <Source>
DSSTox2DMolFile

> <Tox>
0.695

> <CAS>
111-78-4

$$$$

  CDK

 15 14  0  0  0  0  0  0  0  0999 V2000
    1.1588   -0.6621    0.0000 C   0  0  0  0  0  0  0  0  0  0  0  0
    2.2899   -0.0000    0.0000 C   0  0  0  0  0  0  0  0  0  0  0  0
    1.1588   -2.0002    0.0000 O   0  0  0  0  0  0  0  0  0  0  0  0
    0.0000   -0.0000    0.0000 O   0  0  0  0  0  0  0  0  0  0  0  0
    3.4349   -0.6621    0.0000 C   0  0  0  0  0  0  0  0  0  0  0  0
    0.0000   -2.6624    0.0000 C   0  0  0  0  0  0  0  0  0  0  0  0
    4.5936   -0.0000    0.0000 C   0  0  0  0  0  0  0  0  0  0  0  0
    5.7386   -0.6621    0.0000 C   0  0  0  0  0  0  0  0  0  0  0  0
    6.8973   -0.0000    0.0000 C   0  0  0  0  0  0  0  0  0  0  0  0
    8.0561   -0.6621    0.0000 C   0  0  0  0  0  0  0  0  0  0  0  0
    9.2011   -0.0000    0.0000 C   0  0  0  0  0  0  0  0  0  0  0  0
   10.3598   -0.6759    0.0000 C   0  0  0  0  0  0  0  0  0  0  0  0
   11.5048   -0.0000    0.0000 C   0  0  0  0  0  0  0  0  0  0  0  0
   12.6359   -0.6759    0.0000 C   0  0  0  0  0  0  0  0  0  0  0  0
   13.7947   -0.0000    0.0000 C   0  0  0  0  0  0  0  0  0  0  0  0
  1  2  1  0  0  0  0 
  1  3  1  0  0  0  0 
  1  4  2  0  0  0  0 
  2  5  1  0  0  0  0 
  3  6  1  0  0  0  0 
  5  7  1  0  0  0  0 
  7  8  1  0  0  0  0 
  8  9  1  0  0  0  0 
  9 10  1  0  0  0  0 
 10 11  1  0  0  0  0 
 11 12  1  0  0  0  0 
 12 13  1  0  0  0  0 
 13 14  1  0  0  0  0 
 14 15  1  0  0  0  0 
M  END
> <Name>
METHYL LAURATE

> <Source>
DSSTox2DMolFile

> <Tox>
-2.386

> <CAS>
111-82-0

$$$$

  CDK

  9  8  0  0  0  0  0  0  0  0999 V2000
    0.0000   -0.6638    0.0000 Br  0  0  0  0  0  0  0  0  0  0  0  0
    1.1525   -0.0000    0.0000 C   0  0  0  0  0  0  0  0  0  0  0  0
    2.3050   -0.6638    0.0000 C   0  0  0  0  0  0  0  0  0  0  0  0
    3.4575   -0.0000    0.0000 C   0  0  0  0  0  0  0  0  0  0  0  0
    4.6099   -0.6638    0.0000 C   0  0  0  0  0  0  0  0  0  0  0  0
    5.7624   -0.0000    0.0000 C   0  0  0  0  0  0  0  0  0  0  0  0
    6.9149   -0.6638    0.0000 C   0  0  0  0  0  0  0  0  0  0  0  0
    8.0674   -0.0000    0.0000 C   0  0  0  0  0  0  0  0  0  0  0  0
    9.2199   -0.6638    0.0000 C   0  0  0  0  0  0  0  0  0  0  0  0
  1  2  1  0  0  0  0 
  2  3  1  0  0  0  0 
  3  4  1  0  0  0  0 
  4  5  1  0  0  0  0 
  5  6  1  0  0  0  0 
  6  7  1  0  0  0  0 
  7  8  1  0  0  0  0 
  8  9  1  0  0  0  0 
M  END
> <Name>
1-BROMOOCTANE

> <Source>
DSSTox2DMolFile

> <Tox>
-0.418

> <CAS>
111-83-1

$$$$

  CDK

  9  8  0  0  0  0  0  0  0  0999 V2000
    0.0000   -0.6638    0.0000 C   0  0  0  0  0  0  0  0  0  0  0  0
    1.1525   -0.0000    0.0000 C   0  0  0  0  0  0  0  0  0  0  0  0
    2.3050   -0.6638    0.0000 C   0  0  0  0  0  0  0  0  0  0  0  0
    3.4575   -0.0000    0.0000 C   0  0  0  0  0  0  0  0  0  0  0  0
    4.6099   -0.6638    0.0000 C   0  0  0  0  0  0  0  0  0  0  0  0
    5.7624   -0.0000    0.0000 C   0  0  0  0  0  0  0  0  0  0  0  0
    6.9149   -0.6638    0.0000 C   0  0  0  0  0  0  0  0  0  0  0  0
    8.0674   -0.0000    0.0000 C   0  0  0  0  0  0  0  0  0  0  0  0
    9.2199   -0.6638    0.0000 N   0  0  0  0  0  0  0  0  0  0  0  0
  1  2  1  0  0  0  0 
  2  3  1  0  0  0  0 
  3  4  1  0  0  0  0 
  4  5  1  0  0  0  0 
  5  6  1  0  0  0  0 
  6  7  1  0  0  0  0 
  7  8  1  0  0  0  0 
  8  9  1  0  0  0  0 
M  END
> <Name>
N-OCTYLAMINE

> <Source>
DSSTox2DMolFile

> <Tox>
-0.014

> <CAS>
111-86-4

$$$$

  CDK

  9  8  0  0  0  0  0  0  0  0999 V2000
    0.0000   -0.6638    0.0000 C   0  0  0  0  0  0  0  0  0  0  0  0
    1.1525   -0.0000    0.0000 C   0  0  0  0  0  0  0  0  0  0  0  0
    2.3050   -0.6638    0.0000 C   0  0  0  0  0  0  0  0  0  0  0  0
    3.4575   -0.0000    0.0000 C   0  0  0  0  0  0  0  0  0  0  0  0
    4.6099   -0.6638    0.0000 C   0  0  0  0  0  0  0  0  0  0  0  0
    5.7624   -0.0000    0.0000 C   0  0  0  0  0  0  0  0  0  0  0  0
    6.9149   -0.6638    0.0000 C   0  0  0  0  0  0  0  0  0  0  0  0
    8.0674   -0.0000    0.0000 C   0  0  0  0  0  0  0  0  0  0  0  0
    9.2199   -0.6638    0.0000 O   0  0  0  0  0  0  0  0  0  0  0  0
  1  2  1  0  0  0  0 
  2  3  1  0  0  0  0 
  3  4  1  0  0  0  0 
  4  5  1  0  0  0  0 
  5  6  1  0  0  0  0 
  6  7  1  0  0  0  0 
  7  8  1  0  0  0  0 
  8  9  1  0  0  0  0 
M  END
> <Name>
1-OCTANOL

> <Source>
DSSTox2DMolFile

> <Tox>
-1.100

> <CAS>
111-87-5

$$$$

  CDK

  9  8  0  0  0  0  0  0  0  0999 V2000
    0.0000   -0.6638    0.0000 C   0  0  0  0  0  0  0  0  0  0  0  0
    1.1525   -0.0000    0.0000 C   0  0  0  0  0  0  0  0  0  0  0  0
    2.3050   -0.6638    0.0000 O   0  0  0  0  0  0  0  0  0  0  0  0
    3.4575   -0.0000    0.0000 C   0  0  0  0  0  0  0  0  0  0  0  0
    4.6099   -0.6638    0.0000 C   0  0  0  0  0  0  0  0  0  0  0  0
    5.7624   -0.0000    0.0000 O   0  0  0  0  0  0  0  0  0  0  0  0
    6.9149   -0.6638    0.0000 C   0  0  0  0  0  0  0  0  0  0  0  0
    8.0674   -0.0000    0.0000 C   0  0  0  0  0  0  0  0  0  0  0  0
    9.2199   -0.6638    0.0000 O   0  0  0  0  0  0  0  0  0  0  0  0
  1  2  1  0  0  0  0 
  2  3  1  0  0  0  0 
  3  4  1  0  0  0  0 
  4  5  1  0  0  0  0 
  5  6  1  0  0  0  0 
  6  7  1  0  0  0  0 
  7  8  1  0  0  0  0 
  8  9  1  0  0  0  0 
M  END
> <Name>
DIETHYLENE GLYCOL MONOETHYL ETHER

> <Source>
DSSTox2DMolFile

> <Tox>
-0.900

> <CAS>
111-90-0

$$$$

  CDK

  9  8  0  0  0  0  0  0  0  0999 V2000
    5.7436   -0.0000    0.0000 O   0  0  0  0  0  0  0  0  0  0  0  0
    4.6004   -0.6638    0.0000 C   0  0  0  0  0  0  0  0  0  0  0  0
    6.9513   -0.6638    0.0000 C   0  0  0  0  0  0  0  0  0  0  0  0
    3.4756   -0.0000    0.0000 O   0  0  0  0  0  0  0  0  0  0  0  0
    8.0760   -0.0000    0.0000 C   0  0  0  0  0  0  0  0  0  0  0  0
    2.2679   -0.6638    0.0000 C   0  0  0  0  0  0  0  0  0  0  0  0
    9.2192   -0.6638    0.0000 Cl  0  0  0  0  0  0  0  0  0  0  0  0
    1.1432   -0.0000    0.0000 C   0  0  0  0  0  0  0  0  0  0  0  0
    0.0000   -0.6638    0.0000 Cl  0  0  0  0  0  0  0  0  0  0  0  0
  1  2  1  0  0  0  0 
  1  3  1  0  0  0  0 
  2  4  1  0  0  0  0 
  3  5  1  0  0  0  0 
  4  6  1  0  0  0  0 
  5  7  1  0  0  0  0 
  6  8  1  0  0  0  0 
  8  9  1  0  0  0  0 
M  END
> <Name>
BIS(2-CHLOROETHOXY)METHANE

> <Source>
DSSTox2DMolFile

> <Tox>
-0.879

> <CAS>
111-91-1

$$$$

  CDK

  9  8  0  0  0  0  0  0  0  0999 V2000
    4.6099   -0.6638    0.0000 N   0  0  0  0  0  0  0  0  0  0  0  0
    3.4575   -0.0000    0.0000 C   0  0  0  0  0  0  0  0  0  0  0  0
    5.7624   -0.0000    0.0000 C   0  0  0  0  0  0  0  0  0  0  0  0
    2.3050   -0.6638    0.0000 C   0  0  0  0  0  0  0  0  0  0  0  0
    6.9149   -0.6638    0.0000 C   0  0  0  0  0  0  0  0  0  0  0  0
    1.1525   -0.0000    0.0000 C   0  0  0  0  0  0  0  0  0  0  0  0
    8.0674   -0.0000    0.0000 C   0  0  0  0  0  0  0  0  0  0  0  0
    0.0000   -0.6638    0.0000 C   0  0  0  0  0  0  0  0  0  0  0  0
    9.2199   -0.6638    0.0000 C   0  0  0  0  0  0  0  0  0  0  0  0
  1  2  1  0  0  0  0 
  1  3  1  0  0  0  0 
  2  4  1  0  0  0  0 
  3  5  1  0  0  0  0 
  4  6  1  0  0  0  0 
  5  7  1  0  0  0  0 
  6  8  1  0  0  0  0 
  7  9  1  0  0  0  0 
M  END
> <Name>
DIBUTYLAMINE

> <Source>
DSSTox2DMolFile

> <Tox>
0.413

> <CAS>
111-92-2

$$$$

  CDK

  9  8  0  0  0  0  0  0  0  0999 V2000
    4.6099   -0.6638    0.0000 O   0  0  0  0  0  0  0  0  0  0  0  0
    3.4575   -0.0000    0.0000 C   0  0  0  0  0  0  0  0  0  0  0  0
    5.7624   -0.0000    0.0000 C   0  0  0  0  0  0  0  0  0  0  0  0
    2.3050   -0.6638    0.0000 C   0  0  0  0  0  0  0  0  0  0  0  0
    6.9149   -0.6638    0.0000 C   0  0  0  0  0  0  0  0  0  0  0  0
    1.1525   -0.0000    0.0000 O   0  0  0  0  0  0  0  0  0  0  0  0
    8.0674   -0.0000    0.0000 O   0  0  0  0  0  0  0  0  0  0  0  0
    0.0000   -0.6638    0.0000 C   0  0  0  0  0  0  0  0  0  0  0  0
    9.2199   -0.6638    0.0000 C   0  0  0  0  0  0  0  0  0  0  0  0
  1  2  1  0  0  0  0 
  1  3  1  0  0  0  0 
  2  4  1  0  0  0  0 
  3  5  1  0  0  0  0 
  4  6  1  0  0  0  0 
  5  7  1  0  0  0  0 
  6  8  1  0  0  0  0 
  7  9  1  0  0  0  0 
M  END
> <Name>
2-METHOXYETHYLETHER

> <Source>
DSSTox2DMolFile

> <Tox>
0.471

> <CAS>
111-96-6

$$$$

  CDK

 11 10  0  0  0  0  0  0  0  0999 V2000
    0.0000   -2.6632    0.0000 C   0  0  0  0  0  0  0  0  0  0  0  0
    1.1519   -1.9997    0.0000 C   0  0  0  0  0  0  0  0  0  0  0  0
    2.3038   -2.6632    0.0000 C   0  0  0  0  0  0  0  0  0  0  0  0
    3.4557   -1.9997    0.0000 C   0  0  0  0  0  0  0  0  0  0  0  0
    4.6076   -2.6632    0.0000 C   0  0  0  0  0  0  0  0  0  0  0  0
    5.7595   -1.9997    0.0000 C   0  0  0  0  0  0  0  0  0  0  0  0
    6.9113   -2.6632    0.0000 C   0  0  0  0  0  0  0  0  0  0  0  0
    8.0632   -1.9997    0.0000 C   0  0  0  0  0  0  0  0  0  0  0  0
    8.0632   -0.6635    0.0000 C   0  0  0  0  0  0  0  0  0  0  0  0
    6.9113   -0.0000    0.0000 O   0  0  0  0  0  0  0  0  0  0  0  0
    9.2151   -0.0000    0.0000 O   0  0  0  0  0  0  0  0  0  0  0  0
  1  2  1  0  0  0  0 
  2  3  1  0  0  0  0 
  3  4  1  0  0  0  0 
  4  5  1  0  0  0  0 
  5  6  1  0  0  0  0 
  6  7  1  0  0  0  0 
  7  8  1  0  0  0  0 
  8  9  1  0  0  0  0 
  9 10  1  0  0  0  0 
  9 11  2  0  0  0  0 
M  END
> <Name>
NONANOIC ACID

> <Source>
DSSTox2DMolFile

> <Tox>
-2.783

> <CAS>
112-05-0

$$$$

  CDK

 23 22  0  0  0  0  0  0  0  0999 V2000
   13.9125    0.0500    0.0000 C   0  0  0  0  0  0  0  0  0  0  0  0
   14.7632    0.5505    0.0000 C   0  0  0  0  0  0  0  0  0  0  0  0
   13.0117    0.5505    0.0000 C   0  0  0  0  0  0  0  0  0  0  0  0
   15.6641    0.0500    0.0000 O   0  0  0  0  0  0  0  0  0  0  0  0
   14.7632    1.5013    0.0000 O   0  0  0  0  0  0  0  0  0  0  0  0
   12.1609    0.0500    0.0000 C   0  0  0  0  0  0  0  0  0  0  0  0
   16.5148    0.5505    0.0000 C   0  0  0  0  0  0  0  0  0  0  0  0
   11.3101    0.5505    0.0000 C   0  0  0  0  0  0  0  0  0  0  0  0
   17.3656    0.0500    0.0000 C   0  0  0  0  0  0  0  0  0  0  0  0
   16.5148    1.5013    0.0000 C   0  0  0  0  0  0  0  0  0  0  0  0
   10.4594    0.0500    0.0000 C   0  0  0  0  0  0  0  0  0  0  0  0
    9.5586    0.5505    0.0000 C   0  0  0  0  0  0  0  0  0  0  0  0
    8.7078    0.0500    0.0000 C   0  0  0  0  0  0  0  0  0  0  0  0
    7.8570    0.5505    0.0000 C   0  0  0  0  0  0  0  0  0  0  0  0
    7.0063    0.0500    0.0000 C   0  0  0  0  0  0  0  0  0  0  0  0
    6.1055    0.5505    0.0000 C   0  0  0  0  0  0  0  0  0  0  0  0
    5.2547    0.0500    0.0000 C   0  0  0  0  0  0  0  0  0  0  0  0
    4.3539    0.5004    0.0000 C   0  0  0  0  0  0  0  0  0  0  0  0
    3.5031    0.0000    0.0000 C   0  0  0  0  0  0  0  0  0  0  0  0
    2.6023    0.5505    0.0000 C   0  0  0  0  0  0  0  0  0  0  0  0
    1.7015    0.0000    0.0000 C   0  0  0  0  0  0  0  0  0  0  0  0
    0.8508    0.5505    0.0000 C   0  0  0  0  0  0  0  0  0  0  0  0
    0.0000    0.0500    0.0000 C   0  0  0  0  0  0  0  0  0  0  0  0
  1  2  1  0  0  0  0 
  1  3  1  0  0  0  0 
  2  4  1  0  0  0  0 
  2  5  2  0  0  0  0 
  3  6  1  0  0  0  0 
  4  7  1  0  0  0  0 
  8  6  1  0  0  0  0 
  7  9  1  0  0  0  0 
  7 10  1  0  0  0  0 
 11  8  1  0  0  0  0 
 11 12  1  0  0  0  0 
 12 13  1  0  0  0  0 
 14 13  1  0  0  0  0 
 15 14  1  0  0  0  0 
 15 16  1  0  0  0  0 
 16 17  1  0  0  0  0 
 18 17  1  0  0  0  0 
 19 18  1  0  0  0  0 
 19 20  1  0  0  0  0 
 20 21  1  0  0  0  0 
 22 21  1  0  0  0  0 
 23 22  1  0  0  0  0 
M  END
> <Name>
ISOPROPYL STEARATE

> <Source>
NIST2DMolFile

> <Tox>
-4.401

> <CAS>
112-10-7

$$$$

  CDK

 12 11  0  0  0  0  0  0  0  0999 V2000
    0.0000   -1.9913    0.0000 C   0  0  0  0  0  0  0  0  0  0  0  0
    1.1510   -1.3237    0.0000 C   0  0  0  0  0  0  0  0  0  0  0  0
    2.3021   -1.9913    0.0000 C   0  0  0  0  0  0  0  0  0  0  0  0
    3.4531   -1.3237    0.0000 C   0  0  0  0  0  0  0  0  0  0  0  0
    4.6041   -1.9913    0.0000 C   0  0  0  0  0  0  0  0  0  0  0  0
    5.7552   -1.3237    0.0000 C   0  0  0  0  0  0  0  0  0  0  0  0
    6.9062   -1.9913    0.0000 C   0  0  0  0  0  0  0  0  0  0  0  0
    8.0573   -1.3237    0.0000 C   0  0  0  0  0  0  0  0  0  0  0  0
    9.2083   -1.9913    0.0000 C   0  0  0  0  0  0  0  0  0  0  0  0
   10.3593   -1.3237    0.0000 C   0  0  0  0  0  0  0  0  0  0  0  0
   10.3593   -0.0000    0.0000 O   0  0  0  0  0  0  0  0  0  0  0  0
   11.5104   -1.9913    0.0000 C   0  0  0  0  0  0  0  0  0  0  0  0
  1  2  1  0  0  0  0 
  2  3  1  0  0  0  0 
  3  4  1  0  0  0  0 
  4  5  1  0  0  0  0 
  5  6  1  0  0  0  0 
  6  7  1  0  0  0  0 
  7  8  1  0  0  0  0 
  8  9  1  0  0  0  0 
  9 10  1  0  0  0  0 
 10 11  2  0  0  0  0 
 10 12  1  0  0  0  0 
M  END
> <Name>
UNDECANONE

> <Source>
DSSTox2DMolFile

> <Tox>
-1.383

> <CAS>
112-12-9

$$$$

  CDK

 10  9  0  0  0  0  0  0  0  0999 V2000
    0.0000   -0.6638    0.0000 C   0  0  0  0  0  0  0  0  0  0  0  0
    1.1513   -0.0000    0.0000 C   0  0  0  0  0  0  0  0  0  0  0  0
    2.3027   -0.6638    0.0000 C   0  0  0  0  0  0  0  0  0  0  0  0
    3.4540   -0.0000    0.0000 C   0  0  0  0  0  0  0  0  0  0  0  0
    4.6053   -0.6638    0.0000 C   0  0  0  0  0  0  0  0  0  0  0  0
    5.7670   -0.0000    0.0000 C   0  0  0  0  0  0  0  0  0  0  0  0
    6.9184   -0.6638    0.0000 C   0  0  0  0  0  0  0  0  0  0  0  0
    8.0697   -0.0000    0.0000 C   0  0  0  0  0  0  0  0  0  0  0  0
    9.2210   -0.6638    0.0000 C   0  0  0  0  0  0  0  0  0  0  0  0
   10.3724   -0.0000    0.0000 N   0  0  0  0  0  0  0  0  0  0  0  0
  1  2  1  0  0  0  0 
  2  3  1  0  0  0  0 
  3  4  1  0  0  0  0 
  4  5  1  0  0  0  0 
  5  6  1  0  0  0  0 
  6  7  1  0  0  0  0 
  7  8  1  0  0  0  0 
  8  9  1  0  0  0  0 
  9 10  1  0  0  0  0 
M  END
> <Name>
N-NONYLAMINE

> <Source>
DSSTox2DMolFile

> <Tox>
-0.556

> <CAS>
112-20-9

$$$$

  CDK

 10  9  0  0  0  0  0  0  0  0999 V2000
    0.0000   -0.6638    0.0000 N   0  0  0  0  0  0  0  0  0  0  0  0
    1.1513   -0.0000    0.0000 C   0  0  0  0  0  0  0  0  0  0  0  0
    2.3027   -0.6638    0.0000 C   0  0  0  0  0  0  0  0  0  0  0  0
    3.4540   -0.0000    0.0000 N   0  0  0  0  0  0  0  0  0  0  0  0
    4.6053   -0.6638    0.0000 C   0  0  0  0  0  0  0  0  0  0  0  0
    5.7670   -0.0000    0.0000 C   0  0  0  0  0  0  0  0  0  0  0  0
    6.9184   -0.6638    0.0000 N   0  0  0  0  0  0  0  0  0  0  0  0
    8.0697   -0.0000    0.0000 C   0  0  0  0  0  0  0  0  0  0  0  0
    9.2210   -0.6638    0.0000 C   0  0  0  0  0  0  0  0  0  0  0  0
   10.3724   -0.0000    0.0000 N   0  0  0  0  0  0  0  0  0  0  0  0
  1  2  1  0  0  0  0 
  2  3  1  0  0  0  0 
  3  4  1  0  0  0  0 
  4  5  1  0  0  0  0 
  5  6  1  0  0  0  0 
  6  7  1  0  0  0  0 
  7  8  1  0  0  0  0 
  8  9  1  0  0  0  0 
  9 10  1  0  0  0  0 
M  END
> <Name>
TRIETHYLENETETRAAMINE

> <Source>
DSSTox2DMolFile

> <Tox>
-3.385

> <CAS>
112-24-3

$$$$

  CDK

 10  9  0  0  0  0  0  0  0  0999 V2000
    1.1365   -0.0000    0.0000 C   0  0  0  0  0  0  0  0  0  0  0  0
    2.2833   -0.6716    0.0000 C   0  0  0  0  0  0  0  0  0  0  0  0
    0.0000   -0.6716    0.0000 O   0  0  0  0  0  0  0  0  0  0  0  0
    3.4405   -0.0000    0.0000 O   0  0  0  0  0  0  0  0  0  0  0  0
    4.5874   -0.6716    0.0000 C   0  0  0  0  0  0  0  0  0  0  0  0
    5.7445   -0.0000    0.0000 C   0  0  0  0  0  0  0  0  0  0  0  0
    6.8914   -0.6716    0.0000 C   0  0  0  0  0  0  0  0  0  0  0  0
    8.0485   -0.0000    0.0000 C   0  0  0  0  0  0  0  0  0  0  0  0
    9.1954   -0.6716    0.0000 C   0  0  0  0  0  0  0  0  0  0  0  0
   10.3319   -0.0000    0.0000 C   0  0  0  0  0  0  0  0  0  0  0  0
  1  2  1  0  0  0  0 
  1  3  1  0  0  0  0 
  2  4  1  0  0  0  0 
  4  5  1  0  0  0  0 
  5  6  1  0  0  0  0 
  6  7  1  0  0  0  0 
  7  8  1  0  0  0  0 
  8  9  1  0  0  0  0 
  9 10  1  0  0  0  0 
M  END
> <Name>
ETHANOL, 2-(HEXYLOXY)-

> <Source>
DSSTox2DMolFile

> <Tox>
-0.810

> <CAS>
112-25-4

$$$$

  CDK

 10  9  0  0  0  0  0  0  0  0999 V2000
    0.0000   -0.6638    0.0000 O   0  0  0  0  0  0  0  0  0  0  0  0
    1.1513   -0.0000    0.0000 C   0  0  0  0  0  0  0  0  0  0  0  0
    2.3027   -0.6638    0.0000 C   0  0  0  0  0  0  0  0  0  0  0  0
    3.4540   -0.0000    0.0000 O   0  0  0  0  0  0  0  0  0  0  0  0
    4.6053   -0.6638    0.0000 C   0  0  0  0  0  0  0  0  0  0  0  0
    5.7670   -0.0000    0.0000 C   0  0  0  0  0  0  0  0  0  0  0  0
    6.9184   -0.6638    0.0000 O   0  0  0  0  0  0  0  0  0  0  0  0
    8.0697   -0.0000    0.0000 C   0  0  0  0  0  0  0  0  0  0  0  0
    9.2210   -0.6638    0.0000 C   0  0  0  0  0  0  0  0  0  0  0  0
   10.3724   -0.0000    0.0000 O   0  0  0  0  0  0  0  0  0  0  0  0
  1  2  1  0  0  0  0 
  2  3  1  0  0  0  0 
  3  4  1  0  0  0  0 
  4  5  1  0  0  0  0 
  5  6  1  0  0  0  0 
  6  7  1  0  0  0  0 
  7  8  1  0  0  0  0 
  8  9  1  0  0  0  0 
  9 10  1  0  0  0  0 
M  END
> <Name>
TRIETHYLENE GLYCOL

> <Source>
DSSTox2DMolFile

> <Tox>
-2.879

> <CAS>
112-27-6

$$$$

  CDK

 11 10  0  0  0  0  0  0  0  0999 V2000
    3.0444    0.9272    0.0021 C   0  0  0  0  0  0  0  0  0  0  0  0
    1.8616    0.0071    0.0025 C   0  0  0  0  0  0  0  0  0  0  0  0
    4.5874   -0.2751   -0.0018 Br  0  0  0  0  0  0  0  0  0  0  0  0
    0.5562    0.7874    0.0027 C   0  0  0  0  0  0  0  0  0  0  0  0
   -0.6414   -0.1485    0.0045 C   0  0  0  0  0  0  0  0  0  0  0  0
   -1.9482    0.6282    0.0011 C   0  0  0  0  0  0  0  0  0  0  0  0
   -3.1460   -0.3078    0.0046 C   0  0  0  0  0  0  0  0  0  0  0  0
   -4.4534    0.4678   -0.0023 C   0  0  0  0  0  0  0  0  0  0  0  0
   -5.6509   -0.4683    0.0029 C   0  0  0  0  0  0  0  0  0  0  0  0
   -6.9598    0.3052   -0.0074 C   0  0  0  0  0  0  0  0  0  0  0  0
   -8.1522   -0.6244   -0.0009 C   0  0  0  0  0  0  0  0  0  0  0  0
  1  2  1  0  0  0  0 
  1  3  1  0  0  0  0 
  2  4  1  0  0  0  0 
  4  5  1  0  0  0  0 
  5  6  1  0  0  0  0 
  6  7  1  0  0  0  0 
  7  8  1  0  0  0  0 
  8  9  1  0  0  0  0 
  9 10  1  0  0  0  0 
 10 11  1  0  0  0  0 
M  END
> <Name>
1-BROMODECANE

> <Source>
DougDB3DMolFile

> <Tox>
-1.398

> <CAS>
112-29-8

$$$$

  CDK

 11 10  0  0  0  0  0  0  0  0999 V2000
    5.7525   -0.0000    0.0000 O   0  0  0  0  0  0  0  0  0  0  0  0
    4.6020   -0.6673    0.0000 C   0  0  0  0  0  0  0  0  0  0  0  0
    6.9029   -0.6673    0.0000 C   0  0  0  0  0  0  0  0  0  0  0  0
    3.4515   -0.0000    0.0000 C   0  0  0  0  0  0  0  0  0  0  0  0
    8.0534   -0.0000    0.0000 C   0  0  0  0  0  0  0  0  0  0  0  0
    2.3010   -0.6673    0.0000 O   0  0  0  0  0  0  0  0  0  0  0  0
    9.2039   -0.6673    0.0000 O   0  0  0  0  0  0  0  0  0  0  0  0
    1.1505   -0.0000    0.0000 C   0  0  0  0  0  0  0  0  0  0  0  0
   10.3544   -0.0000    0.0000 C   0  0  0  0  0  0  0  0  0  0  0  0
    0.0000   -0.6673    0.0000 C   0  0  0  0  0  0  0  0  0  0  0  0
   11.5049   -0.6673    0.0000 C   0  0  0  0  0  0  0  0  0  0  0  0
  1  2  1  0  0  0  0 
  1  3  1  0  0  0  0 
  2  4  1  0  0  0  0 
  3  5  1  0  0  0  0 
  4  6  1  0  0  0  0 
  5  7  1  0  0  0  0 
  6  8  1  0  0  0  0 
  7  9  1  0  0  0  0 
  8 10  1  0  0  0  0 
  9 11  1  0  0  0  0 
M  END
> <Name>
BIS (2-ETHOXY ETHYL)  ETHER

> <Source>
DSSTox2DMolFile

> <Tox>
-0.283

> <CAS>
112-36-7

$$$$

  CDK

 13 12  0  0  0  0  0  0  0  0999 V2000
    9.2079   -0.0000    0.0000 O   0  0  0  0  0  0  0  0  0  0  0  0
   10.3589   -0.6676    0.0000 C   0  0  0  0  0  0  0  0  0  0  0  0
   11.5099   -0.0000    0.0000 O   0  0  0  0  0  0  0  0  0  0  0  0
   10.3589   -1.9912    0.0000 C   0  0  0  0  0  0  0  0  0  0  0  0
    9.2079   -2.6588    0.0000 C   0  0  0  0  0  0  0  0  0  0  0  0
    8.0569   -1.9912    0.0000 C   0  0  0  0  0  0  0  0  0  0  0  0
    6.9059   -2.6588    0.0000 C   0  0  0  0  0  0  0  0  0  0  0  0
    5.7550   -1.9912    0.0000 C   0  0  0  0  0  0  0  0  0  0  0  0
    4.6040   -2.6588    0.0000 C   0  0  0  0  0  0  0  0  0  0  0  0
    3.4530   -1.9912    0.0000 C   0  0  0  0  0  0  0  0  0  0  0  0
    2.3020   -2.6588    0.0000 C   0  0  0  0  0  0  0  0  0  0  0  0
    1.1510   -1.9912    0.0000 C   0  0  0  0  0  0  0  0  0  0  0  0
    0.0000   -2.6588    0.0000 C   0  0  0  0  0  0  0  0  0  0  0  0
  1  2  2  0  0  0  0 
  2  3  1  0  0  0  0 
  2  4  1  0  0  0  0 
  4  5  1  0  0  0  0 
  5  6  1  0  0  0  0 
  6  7  1  0  0  0  0 
  7  8  1  0  0  0  0 
  8  9  1  0  0  0  0 
  9 10  1  0  0  0  0 
 10 11  1  0  0  0  0 
 11 12  1  0  0  0  0 
 12 13  1  0  0  0  0 
M  END
> <Name>
UNDECANOIC ACID

> <Source>
DSSTox2DMolFile

> <Tox>
-2.419

> <CAS>
112-37-8

$$$$

  CDK

 13 12  0  0  0  0  0  0  0  0999 V2000
    1.1554   -1.3331    0.0000 C   0  0  0  0  0  0  0  0  0  0  0  0
    2.2981   -1.9934    0.0000 C   0  0  0  0  0  0  0  0  0  0  0  0
    0.0000   -1.9934    0.0000 O   0  0  0  0  0  0  0  0  0  0  0  0
    1.1554   -0.0000    0.0000 O   0  0  0  0  0  0  0  0  0  0  0  0
    3.4535   -1.3331    0.0000 C   0  0  0  0  0  0  0  0  0  0  0  0
    4.6088   -1.9934    0.0000 C   0  0  0  0  0  0  0  0  0  0  0  0
    5.7642   -1.3331    0.0000 C   0  0  0  0  0  0  0  0  0  0  0  0
    6.9323   -1.9934    0.0000 C   0  0  0  0  0  0  0  0  0  0  0  0
    8.0877   -1.3331    0.0000 C   0  0  0  0  0  0  0  0  0  0  0  0
    9.2431   -1.9934    0.0000 C   0  0  0  0  0  0  0  0  0  0  0  0
   10.3984   -1.3331    0.0000 C   0  0  0  0  0  0  0  0  0  0  0  0
   11.5411   -1.9934    0.0000 C   0  0  0  0  0  0  0  0  0  0  0  0
   12.6965   -1.3331    0.0000 C   0  0  0  0  0  0  0  0  0  0  0  0
  1  2  1  0  0  0  0 
  1  3  1  0  0  0  0 
  1  4  2  0  0  0  0 
  2  5  1  0  0  0  0 
  5  6  1  0  0  0  0 
  6  7  1  0  0  0  0 
  7  8  1  0  0  0  0 
  8  9  1  0  0  0  0 
  9 10  1  0  0  0  0 
 10 11  1  0  0  0  0 
 11 12  1  0  0  0  0 
 12 13  2  0  0  0  0 
M  END
> <Name>
UNDECYLENIC ACID

> <Source>
DSSTox2DMolFile

> <Tox>
-3.028

> <CAS>
112-38-9

$$$$

  CDK

 19 18  0  0  0  0  0  0  0  0999 V2000
    2.3097   -1.3029    0.0000 C   0  0  0  0  0  0  0  0  0  0  0  0
    3.4942   -1.9544    0.0000 C   0  0  0  0  0  0  0  0  0  0  0  0
    1.1253   -1.9544    0.0000 O   0  0  0  0  0  0  0  0  0  0  0  0
    2.3097   -0.0000    0.0000 O   0  0  0  0  0  0  0  0  0  0  0  0
    4.6195   -1.3029    0.0000 C   0  0  0  0  0  0  0  0  0  0  0  0
    0.0000   -1.3029    0.0000 C   0  0  0  0  0  0  0  0  0  0  0  0
    5.7842   -1.9544    0.0000 C   0  0  0  0  0  0  0  0  0  0  0  0
    6.9095   -1.3029    0.0000 C   0  0  0  0  0  0  0  0  0  0  0  0
    8.0939   -1.9544    0.0000 C   0  0  0  0  0  0  0  0  0  0  0  0
    9.2784   -1.3029    0.0000 C   0  0  0  0  0  0  0  0  0  0  0  0
   10.3839   -1.9544    0.0000 C   0  0  0  0  0  0  0  0  0  0  0  0
   11.5881   -1.3029    0.0000 C   0  0  0  0  0  0  0  0  0  0  0  0
   12.7529   -1.9544    0.0000 C   0  0  0  0  0  0  0  0  0  0  0  0
   13.8781   -1.3029    0.0000 C   0  0  0  0  0  0  0  0  0  0  0  0
   15.0626   -1.9544    0.0000 C   0  0  0  0  0  0  0  0  0  0  0  0
   16.2471   -1.3029    0.0000 C   0  0  0  0  0  0  0  0  0  0  0  0
   17.3724   -1.9544    0.0000 C   0  0  0  0  0  0  0  0  0  0  0  0
   18.5568   -1.3029    0.0000 C   0  0  0  0  0  0  0  0  0  0  0  0
   19.7413   -1.9544    0.0000 C   0  0  0  0  0  0  0  0  0  0  0  0
  1  2  1  0  0  0  0 
  1  3  1  0  0  0  0 
  1  4  2  0  0  0  0 
  2  5  1  0  0  0  0 
  3  6  1  0  0  0  0 
  5  7  1  0  0  0  0 
  7  8  1  0  0  0  0 
  8  9  1  0  0  0  0 
  9 10  1  0  0  0  0 
 10 11  1  0  0  0  0 
 11 12  1  0  0  0  0 
 12 13  1  0  0  0  0 
 13 14  1  0  0  0  0 
 14 15  1  0  0  0  0 
 15 16  1  0  0  0  0 
 16 17  1  0  0  0  0 
 17 18  1  0  0  0  0 
 18 19  1  0  0  0  0 
M  END
> <Name>
METHYL HEXADECANOATE

> <Source>
DSSTox2DMolFile

> <Tox>
-4.328

> <CAS>
112-39-0

$$$$

  CDK

 12 11  0  0  0  0  0  0  0  0999 V2000
    0.0000   -0.6699    0.0000 C   0  0  0  0  0  0  0  0  0  0  0  0
    1.1501   -0.0000    0.0000 C   0  0  0  0  0  0  0  0  0  0  0  0
    2.2876   -0.6699    0.0000 C   0  0  0  0  0  0  0  0  0  0  0  0
    3.4378   -0.0000    0.0000 C   0  0  0  0  0  0  0  0  0  0  0  0
    4.5879   -0.6699    0.0000 C   0  0  0  0  0  0  0  0  0  0  0  0
    5.7381   -0.0000    0.0000 C   0  0  0  0  0  0  0  0  0  0  0  0
    6.9008   -0.6699    0.0000 C   0  0  0  0  0  0  0  0  0  0  0  0
    8.0510   -0.0000    0.0000 C   0  0  0  0  0  0  0  0  0  0  0  0
    9.2011   -0.6699    0.0000 C   0  0  0  0  0  0  0  0  0  0  0  0
   10.3512   -0.0000    0.0000 C   0  0  0  0  0  0  0  0  0  0  0  0
   11.4887   -0.6699    0.0000 C   0  0  0  0  0  0  0  0  0  0  0  0
   12.6389   -0.0000    0.0000 C   0  0  0  0  0  0  0  0  0  0  0  0
  1  2  1  0  0  0  0 
  2  3  1  0  0  0  0 
  3  4  1  0  0  0  0 
  4  5  1  0  0  0  0 
  5  6  1  0  0  0  0 
  6  7  1  0  0  0  0 
  7  8  1  0  0  0  0 
  8  9  1  0  0  0  0 
  9 10  1  0  0  0  0 
 10 11  1  0  0  0  0 
 11 12  1  0  0  0  0 
M  END
> <Name>
DODECANE

> <Source>
DSSTox2DMolFile

> <Tox>
-0.870

> <CAS>
112-40-3

$$$$

  CDK

 12 11  0  0  0  0  0  0  0  0999 V2000
    0.0000   -0.6699    0.0000 C   0  0  0  0  0  0  0  0  0  0  0  0
    1.1501   -0.0000    0.0000 C   0  0  0  0  0  0  0  0  0  0  0  0
    2.2876   -0.6699    0.0000 C   0  0  0  0  0  0  0  0  0  0  0  0
    3.4378   -0.0000    0.0000 C   0  0  0  0  0  0  0  0  0  0  0  0
    4.5879   -0.6699    0.0000 C   0  0  0  0  0  0  0  0  0  0  0  0
    5.7381   -0.0000    0.0000 C   0  0  0  0  0  0  0  0  0  0  0  0
    6.9008   -0.6699    0.0000 C   0  0  0  0  0  0  0  0  0  0  0  0
    8.0510   -0.0000    0.0000 C   0  0  0  0  0  0  0  0  0  0  0  0
    9.2011   -0.6699    0.0000 C   0  0  0  0  0  0  0  0  0  0  0  0
   10.3512   -0.0000    0.0000 C   0  0  0  0  0  0  0  0  0  0  0  0
   11.4887   -0.6699    0.0000 C   0  0  0  0  0  0  0  0  0  0  0  0
   12.6389   -0.0000    0.0000 C   0  0  0  0  0  0  0  0  0  0  0  0
  1  2  2  0  0  0  0 
  2  3  1  0  0  0  0 
  3  4  1  0  0  0  0 
  4  5  1  0  0  0  0 
  5  6  1  0  0  0  0 
  6  7  1  0  0  0  0 
  7  8  1  0  0  0  0 
  8  9  1  0  0  0  0 
  9 10  1  0  0  0  0 
 10 11  1  0  0  0  0 
 11 12  1  0  0  0  0 
M  END
> <Name>
N-DODECENE

> <Source>
DSSTox2DMolFile

> <Tox>
-0.799

> <CAS>
112-41-4

$$$$

  CDK

 12 11  0  0  0  0  0  0  0  0999 V2000
    1.1501   -0.0000    0.0000 C   0  0  0  0  0  0  0  0  0  0  0  0
    2.2876   -0.6699    0.0000 C   0  0  0  0  0  0  0  0  0  0  0  0
    0.0000   -0.6699    0.0000 O   0  0  0  0  0  0  0  0  0  0  0  0
    3.4378   -0.0000    0.0000 C   0  0  0  0  0  0  0  0  0  0  0  0
    4.5879   -0.6699    0.0000 C   0  0  0  0  0  0  0  0  0  0  0  0
    5.7381   -0.0000    0.0000 C   0  0  0  0  0  0  0  0  0  0  0  0
    6.9008   -0.6699    0.0000 C   0  0  0  0  0  0  0  0  0  0  0  0
    8.0510   -0.0000    0.0000 C   0  0  0  0  0  0  0  0  0  0  0  0
    9.2011   -0.6699    0.0000 C   0  0  0  0  0  0  0  0  0  0  0  0
   10.3512   -0.0000    0.0000 C   0  0  0  0  0  0  0  0  0  0  0  0
   11.4887   -0.6699    0.0000 C   0  0  0  0  0  0  0  0  0  0  0  0
   12.6389   -0.0000    0.0000 C   0  0  0  0  0  0  0  0  0  0  0  0
  1  2  1  0  0  0  0 
  1  3  1  0  0  0  0 
  2  4  1  0  0  0  0 
  4  5  1  0  0  0  0 
  5  6  1  0  0  0  0 
  6  7  1  0  0  0  0 
  7  8  1  0  0  0  0 
  8  9  1  0  0  0  0 
  9 10  1  0  0  0  0 
 10 11  1  0  0  0  0 
 11 12  1  0  0  0  0 
M  END
> <Name>
1-UNDECANOL

> <Source>
DSSTox2DMolFile

> <Tox>
-2.527

> <CAS>
112-42-5

$$$$

  CDK

 12 11  0  0  0  0  0  0  0  0999 V2000
    6.9211   -0.6604    0.0000 C   0  0  0  0  0  0  0  0  0  0  0  0
    8.0767   -0.0000    0.0000 O   0  0  0  0  0  0  0  0  0  0  0  0
    5.7782   -0.0000    0.0000 C   0  0  0  0  0  0  0  0  0  0  0  0
    9.2324   -0.6604    0.0000 C   0  0  0  0  0  0  0  0  0  0  0  0
    4.6225   -0.6604    0.0000 O   0  0  0  0  0  0  0  0  0  0  0  0
   10.3880   -0.0000    0.0000 C   0  0  0  0  0  0  0  0  0  0  0  0
    3.4669   -0.0000    0.0000 C   0  0  0  0  0  0  0  0  0  0  0  0
   11.5436   -0.6604    0.0000 O   0  0  0  0  0  0  0  0  0  0  0  0
    2.3113   -0.6604    0.0000 C   0  0  0  0  0  0  0  0  0  0  0  0
   12.6993   -0.0000    0.0000 C   0  0  0  0  0  0  0  0  0  0  0  0
    1.1556   -0.0000    0.0000 O   0  0  0  0  0  0  0  0  0  0  0  0
    0.0000   -0.6604    0.0000 C   0  0  0  0  0  0  0  0  0  0  0  0
  1  2  1  0  0  0  0 
  1  3  1  0  0  0  0 
  2  4  1  0  0  0  0 
  3  5  1  0  0  0  0 
  4  6  1  0  0  0  0 
  5  7  1  0  0  0  0 
  6  8  1  0  0  0  0 
  7  9  1  0  0  0  0 
  8 10  1  0  0  0  0 
  9 11  1  0  0  0  0 
 11 12  1  0  0  0  0 
M  END
> <Name>
2,5,8,11-TETRAOXADODECANE

> <Source>
DSSTox2DMolFile

> <Tox>
-1.395

> <CAS>
112-49-2

$$$$

  CDK

 12 11  0  0  0  0  0  0  0  0999 V2000
    0.0000   -0.6699    0.0000 O   0  0  0  0  0  0  0  0  0  0  0  0
    1.1501   -0.0000    0.0000 C   0  0  0  0  0  0  0  0  0  0  0  0
    2.3003   -0.6699    0.0000 C   0  0  0  0  0  0  0  0  0  0  0  0
    3.4504   -0.0000    0.0000 O   0  0  0  0  0  0  0  0  0  0  0  0
    4.6006   -0.6699    0.0000 C   0  0  0  0  0  0  0  0  0  0  0  0
    5.7507   -0.0000    0.0000 C   0  0  0  0  0  0  0  0  0  0  0  0
    6.8882   -0.6699    0.0000 O   0  0  0  0  0  0  0  0  0  0  0  0
    8.0383   -0.0000    0.0000 C   0  0  0  0  0  0  0  0  0  0  0  0
    9.1885   -0.6699    0.0000 C   0  0  0  0  0  0  0  0  0  0  0  0
   10.3386   -0.0000    0.0000 O   0  0  0  0  0  0  0  0  0  0  0  0
   11.4888   -0.6699    0.0000 C   0  0  0  0  0  0  0  0  0  0  0  0
   12.6389   -0.0000    0.0000 C   0  0  0  0  0  0  0  0  0  0  0  0
  1  2  1  0  0  0  0 
  2  3  1  0  0  0  0 
  3  4  1  0  0  0  0 
  4  5  1  0  0  0  0 
  5  6  1  0  0  0  0 
  6  7  1  0  0  0  0 
  7  8  1  0  0  0  0 
  8  9  1  0  0  0  0 
  9 10  1  0  0  0  0 
 10 11  1  0  0  0  0 
 11 12  1  0  0  0  0 
M  END
> <Name>
ETHOXYTRIETHYLENE GLYCOL

> <Source>
DSSTox2DMolFile

> <Tox>
-2.000

> <CAS>
112-50-5

$$$$

  CDK

 12 11  0  0  0  0  0  0  0  0999 V2000
   -0.8585   -1.9358    0.5624 S   0  0  0  0  0  0  0  0  0  0  0  0
    0.8612   -1.9297   -0.5631 S   0  0  0  0  0  0  0  0  0  0  0  0
   -1.8532   -0.6762   -0.2869 C   0  0  0  0  0  0  0  0  0  0  0  0
    1.8538   -0.6789    0.2872 C   0  0  0  0  0  0  0  0  0  0  0  0
   -3.2081   -0.5088    0.3952 C   0  0  0  0  0  0  0  0  0  0  0  0
    3.2068   -0.5071   -0.3975 C   0  0  0  0  0  0  0  0  0  0  0  0
   -4.0540    0.5476   -0.3206 C   0  0  0  0  0  0  0  0  0  0  0  0
    4.0541    0.5458    0.3218 C   0  0  0  0  0  0  0  0  0  0  0  0
   -5.3996    0.7490    0.3761 C   0  0  0  0  0  0  0  0  0  0  0  0
    5.3978    0.7515   -0.3772 C   0  0  0  0  0  0  0  0  0  0  0  0
   -6.2282    1.8216   -0.3125 C   0  0  0  0  0  0  0  0  0  0  0  0
    6.2278    1.8209    0.3150 C   0  0  0  0  0  0  0  0  0  0  0  0
  1  2  1  0  0  0  0 
  1  3  1  0  0  0  0 
  2  4  1  0  0  0  0 
  5  3  1  0  0  0  0 
  6  4  1  0  0  0  0 
  7  5  1  0  0  0  0 
  8  6  1  0  0  0  0 
  7  9  1  0  0  0  0 
  8 10  1  0  0  0  0 
  9 11  1  0  0  0  0 
 10 12  1  0  0  0  0 
M  END
> <Name>
6,7-DITHIADODECANE

> <Source>
Chemidplus3DMolFile

> <Tox>
-2.197

> <CAS>
112-51-6

$$$$

  CDK

 13 12  0  0  0  0  0  0  0  0999 V2000
    0.0000   -0.6638    0.0000 C   0  0  0  0  0  0  0  0  0  0  0  0
    1.1479   -0.0000    0.0000 C   0  0  0  0  0  0  0  0  0  0  0  0
    2.3096   -0.6638    0.0000 C   0  0  0  0  0  0  0  0  0  0  0  0
    3.4575   -0.0000    0.0000 C   0  0  0  0  0  0  0  0  0  0  0  0
    4.6053   -0.6638    0.0000 C   0  0  0  0  0  0  0  0  0  0  0  0
    5.7670   -0.0000    0.0000 C   0  0  0  0  0  0  0  0  0  0  0  0
    6.9149   -0.6638    0.0000 C   0  0  0  0  0  0  0  0  0  0  0  0
    8.0628   -0.0000    0.0000 C   0  0  0  0  0  0  0  0  0  0  0  0
    9.2245   -0.6638    0.0000 C   0  0  0  0  0  0  0  0  0  0  0  0
   10.3724   -0.0000    0.0000 C   0  0  0  0  0  0  0  0  0  0  0  0
   11.5202   -0.6638    0.0000 C   0  0  0  0  0  0  0  0  0  0  0  0
   12.6819   -0.0000    0.0000 C   0  0  0  0  0  0  0  0  0  0  0  0
   13.8298   -0.6638    0.0000 Cl  0  0  0  0  0  0  0  0  0  0  0  0
  1  2  1  0  0  0  0 
  2  3  1  0  0  0  0 
  3  4  1  0  0  0  0 
  4  5  1  0  0  0  0 
  5  6  1  0  0  0  0 
  6  7  1  0  0  0  0 
  7  8  1  0  0  0  0 
  8  9  1  0  0  0  0 
  9 10  1  0  0  0  0 
 10 11  1  0  0  0  0 
 11 12  1  0  0  0  0 
 12 13  1  0  0  0  0 
M  END
> <Name>
1-CHLORODODECANE

> <Source>
DSSTox2DMolFile

> <Tox>
-2.201

> <CAS>
112-52-7

$$$$

  CDK

 13 12  0  0  0  0  0  0  0  0999 V2000
    1.1737   -0.0000    0.0000 C   0  0  0  0  0  0  0  0  0  0  0  0
    2.3334   -0.6427    0.0000 C   0  0  0  0  0  0  0  0  0  0  0  0
    0.0000   -0.6427    0.0000 O   0  0  0  0  0  0  0  0  0  0  0  0
    3.5071   -0.0000    0.0000 C   0  0  0  0  0  0  0  0  0  0  0  0
    4.6528   -0.6427    0.0000 C   0  0  0  0  0  0  0  0  0  0  0  0
    5.8265   -0.0000    0.0000 C   0  0  0  0  0  0  0  0  0  0  0  0
    6.9862   -0.6427    0.0000 C   0  0  0  0  0  0  0  0  0  0  0  0
    8.1460   -0.0000    0.0000 C   0  0  0  0  0  0  0  0  0  0  0  0
    9.3197   -0.6427    0.0000 C   0  0  0  0  0  0  0  0  0  0  0  0
   10.4654   -0.0000    0.0000 C   0  0  0  0  0  0  0  0  0  0  0  0
   11.6391   -0.6427    0.0000 C   0  0  0  0  0  0  0  0  0  0  0  0
   12.7988   -0.0000    0.0000 C   0  0  0  0  0  0  0  0  0  0  0  0
   13.9725   -0.6427    0.0000 C   0  0  0  0  0  0  0  0  0  0  0  0
  1  2  1  0  0  0  0 
  1  3  1  0  0  0  0 
  2  4  1  0  0  0  0 
  4  5  1  0  0  0  0 
  5  6  1  0  0  0  0 
  6  7  1  0  0  0  0 
  7  8  1  0  0  0  0 
  8  9  1  0  0  0  0 
  9 10  1  0  0  0  0 
 10 11  1  0  0  0  0 
 11 12  1  0  0  0  0 
 12 13  1  0  0  0  0 
M  END
> <Name>
DODECANOL

> <Source>
DSSTox2DMolFile

> <Tox>
-3.072

> <CAS>
112-53-8

$$$$

  CDK

 13 12  0  0  0  0  0  0  0  0999 V2000
    0.0000   -0.6638    0.0000 C   0  0  0  0  0  0  0  0  0  0  0  0
    1.1479   -0.0000    0.0000 C   0  0  0  0  0  0  0  0  0  0  0  0
    2.3096   -0.6638    0.0000 C   0  0  0  0  0  0  0  0  0  0  0  0
    3.4575   -0.0000    0.0000 C   0  0  0  0  0  0  0  0  0  0  0  0
    4.6053   -0.6638    0.0000 C   0  0  0  0  0  0  0  0  0  0  0  0
    5.7670   -0.0000    0.0000 C   0  0  0  0  0  0  0  0  0  0  0  0
    6.9149   -0.6638    0.0000 C   0  0  0  0  0  0  0  0  0  0  0  0
    8.0628   -0.0000    0.0000 C   0  0  0  0  0  0  0  0  0  0  0  0
    9.2245   -0.6638    0.0000 C   0  0  0  0  0  0  0  0  0  0  0  0
   10.3724   -0.0000    0.0000 C   0  0  0  0  0  0  0  0  0  0  0  0
   11.5202   -0.6638    0.0000 C   0  0  0  0  0  0  0  0  0  0  0  0
   12.6819   -0.0000    0.0000 C   0  0  0  0  0  0  0  0  0  0  0  0
   13.8298   -0.6638    0.0000 O   0  0  0  0  0  0  0  0  0  0  0  0
  1  2  1  0  0  0  0 
  2  3  1  0  0  0  0 
  3  4  1  0  0  0  0 
  4  5  1  0  0  0  0 
  5  6  1  0  0  0  0 
  6  7  1  0  0  0  0 
  7  8  1  0  0  0  0 
  8  9  1  0  0  0  0 
  9 10  1  0  0  0  0 
 10 11  1  0  0  0  0 
 11 12  1  0  0  0  0 
 12 13  2  0  0  0  0 
M  END
> <Name>
DODECANAL

> <Source>
DSSTox2DMolFile

> <Tox>
-1.815

> <CAS>
112-54-9

$$$$

  CDK

 13 12  0  0  0  0  0  0  0  0999 V2000
    6.9149   -0.6638    0.0000 C   0  0  0  0  0  0  0  0  0  0  0  0
    5.7670   -0.0000    0.0000 C   0  0  0  0  0  0  0  0  0  0  0  0
    8.0628   -0.0000    0.0000 C   0  0  0  0  0  0  0  0  0  0  0  0
    4.6053   -0.6638    0.0000 C   0  0  0  0  0  0  0  0  0  0  0  0
    9.2245   -0.6638    0.0000 C   0  0  0  0  0  0  0  0  0  0  0  0
    3.4575   -0.0000    0.0000 C   0  0  0  0  0  0  0  0  0  0  0  0
   10.3724   -0.0000    0.0000 C   0  0  0  0  0  0  0  0  0  0  0  0
    2.3096   -0.6638    0.0000 C   0  0  0  0  0  0  0  0  0  0  0  0
   11.5202   -0.6638    0.0000 C   0  0  0  0  0  0  0  0  0  0  0  0
    1.1479   -0.0000    0.0000 C   0  0  0  0  0  0  0  0  0  0  0  0
   12.6819   -0.0000    0.0000 C   0  0  0  0  0  0  0  0  0  0  0  0
    0.0000   -0.6638    0.0000 C   0  0  0  0  0  0  0  0  0  0  0  0
   13.8298   -0.6638    0.0000 S   0  0  0  0  0  0  0  0  0  0  0  0
  1  2  1  0  0  0  0 
  1  3  1  0  0  0  0 
  2  4  1  0  0  0  0 
  3  5  1  0  0  0  0 
  4  6  1  0  0  0  0 
  5  7  1  0  0  0  0 
  6  8  1  0  0  0  0 
  7  9  1  0  0  0  0 
  8 10  1  0  0  0  0 
  9 11  1  0  0  0  0 
 10 12  1  0  0  0  0 
 11 13  1  0  0  0  0 
M  END
> <Name>
DODECYL MERCAPTAN

> <Source>
DSSTox2DMolFile

> <Tox>
-2.069

> <CAS>
112-55-0

$$$$

  CDK

 13 12  0  0  0  0  0  0  0  0999 V2000
    0.0000    0.0898    0.0026 O   0  0  0  0  0  0  0  0  0  0  0  0
   -1.1840   -0.6933    0.0033 C   0  0  0  0  0  0  0  0  0  0  0  0
    1.1841   -0.6930    0.0028 C   0  0  0  0  0  0  0  0  0  0  0  0
   -2.3607    0.2786    0.0029 C   0  0  0  0  0  0  0  0  0  0  0  0
    2.3607    0.2790    0.0033 C   0  0  0  0  0  0  0  0  0  0  0  0
   -3.6765   -0.4822   -0.0003 C   0  0  0  0  0  0  0  0  0  0  0  0
    3.6765   -0.4818   -0.0008 C   0  0  0  0  0  0  0  0  0  0  0  0
   -4.8620    0.4692    0.0008 C   0  0  0  0  0  0  0  0  0  0  0  0
    4.8621    0.4694    0.0014 C   0  0  0  0  0  0  0  0  0  0  0  0
   -6.1805   -0.2878   -0.0053 C   0  0  0  0  0  0  0  0  0  0  0  0
    6.1804   -0.2879   -0.0059 C   0  0  0  0  0  0  0  0  0  0  0  0
   -7.3610    0.6570   -0.0027 C   0  0  0  0  0  0  0  0  0  0  0  0
    7.3611    0.6565   -0.0023 C   0  0  0  0  0  0  0  0  0  0  0  0
  1  2  1  0  0  0  0 
  1  3  1  0  0  0  0 
  2  4  1  0  0  0  0 
  3  5  1  0  0  0  0 
  4  6  1  0  0  0  0 
  5  7  1  0  0  0  0 
  6  8  1  0  0  0  0 
  7  9  1  0  0  0  0 
  8 10  1  0  0  0  0 
  9 11  1  0  0  0  0 
 10 12  1  0  0  0  0 
 11 13  1  0  0  0  0 
M  END
> <Name>
DI-N-HEXYL ETHER

> <Source>
DougDB3DMolFile

> <Tox>
-1.336

> <CAS>
112-58-3

$$$$

  CDK

 21 20  0  0  0  0  0  0  0  0999 V2000
    0.0000    0.0000    0.0000 C   0  0  0  0  0  0  0  0  0  0  0  0
   -1.1600   -0.7000    0.7200 C   0  0  0  0  0  0  0  0  0  0  0  0
   -0.4000    0.6000   -1.3400 C   0  0  0  0  0  0  0  0  0  0  0  0
   -0.8400   -1.0800    2.1600 C   0  0  0  0  0  0  0  0  0  0  0  0
    0.7000    1.4800   -1.9600 C   0  0  0  0  0  0  0  0  0  0  0  0
   -2.0800   -1.4600    2.9600 C   0  0  0  0  0  0  0  0  0  0  0  0
    0.2400    2.1800   -3.2200 C   0  0  0  0  0  0  0  0  0  0  0  0
   -1.8200   -1.5000    4.4600 C   0  0  0  0  0  0  0  0  0  0  0  0
    1.3000    3.1400   -3.7800 C   0  0  0  0  0  0  0  0  0  0  0  0
   -3.1200   -1.4600    5.2800 C   0  0  0  0  0  0  0  0  0  0  0  0
    0.8400    3.8800   -5.0200 C   0  0  0  0  0  0  0  0  0  0  0  0
   -2.8800   -1.1000    6.7400 C   0  0  0  0  0  0  0  0  0  0  0  0
    1.8800    4.8600   -5.5600 C   0  0  0  0  0  0  0  0  0  0  0  0
   -4.1200   -0.5600    7.4400 C   0  0  0  0  0  0  0  0  0  0  0  0
   -3.8200    0.0400    8.8200 C   0  0  0  0  0  0  0  0  0  0  0  0
   -5.0600    0.7000    9.4400 C   0  0  0  0  0  0  0  0  0  0  0  0
   -4.7000    1.6000   10.6200 C   0  0  0  0  0  0  0  0  0  0  0  0
   -4.0200    2.8800   10.1800 C   0  0  0  0  0  0  0  0  0  0  0  0
   -3.6200    3.6800   11.0000 O   0  0  0  0  0  0  0  0  0  0  0  0
   -3.9000    3.0200    8.8600 O   0  0  0  0  0  0  0  0  0  0  0  0
   -3.2400    4.2400    8.5200 C   0  0  0  0  0  0  0  0  0  0  0  0
  1  2  1  0  0  0  0 
  1  3  1  0  0  0  0 
  2  4  1  0  0  0  0 
  3  5  1  0  0  0  0 
  4  6  1  0  0  0  0 
  5  7  1  0  0  0  0 
  6  8  1  0  0  0  0 
  7  9  1  0  0  0  0 
  8 10  1  0  0  0  0 
  9 11  1  0  0  0  0 
 10 12  1  0  0  0  0 
 11 13  1  0  0  0  0 
 12 14  1  0  0  0  0 
 14 15  1  0  0  0  0 
 15 16  1  0  0  0  0 
 16 17  1  0  0  0  0 
 17 18  1  0  0  0  0 
 18 19  2  0  0  0  0 
 18 20  1  0  0  0  0 
 20 21  1  0  0  0  0 
M  END
> <Name>
METHYL STEARATE

> <Source>
NIH3DMolFile

> <Tox>
-4.866

> <CAS>
112-61-8

$$$$

  CDK

 21 20  0  0  0  0  0  0  0  0999 V2000
   11.2936   -0.0000    0.0000 C   0  0  0  0  0  0  0  0  0  0  0  0
   11.9636   -1.1605    0.0000 C   0  0  0  0  0  0  0  0  0  0  0  0
   11.2936   -2.3090    0.0000 C   0  0  0  0  0  0  0  0  0  0  0  0
   11.9636   -3.4575    0.0000 C   0  0  0  0  0  0  0  0  0  0  0  0
   11.2936   -4.6060    0.0000 C   0  0  0  0  0  0  0  0  0  0  0  0
   11.9636   -5.7665    0.0000 C   0  0  0  0  0  0  0  0  0  0  0  0
   11.2936   -6.9150    0.0000 C   0  0  0  0  0  0  0  0  0  0  0  0
    9.9657   -6.9150    0.0000 C   0  0  0  0  0  0  0  0  0  0  0  0
    9.3077   -8.0635    0.0000 C   0  0  0  0  0  0  0  0  0  0  0  0
    7.9797   -8.0635    0.0000 C   0  0  0  0  0  0  0  0  0  0  0  0
    7.3098   -6.9150    0.0000 C   0  0  0  0  0  0  0  0  0  0  0  0
    5.9818   -6.9150    0.0000 C   0  0  0  0  0  0  0  0  0  0  0  0
    5.3118   -5.7665    0.0000 C   0  0  0  0  0  0  0  0  0  0  0  0
    3.9839   -5.7665    0.0000 C   0  0  0  0  0  0  0  0  0  0  0  0
    3.3259   -4.6060    0.0000 C   0  0  0  0  0  0  0  0  0  0  0  0
    1.9979   -4.6060    0.0000 C   0  0  0  0  0  0  0  0  0  0  0  0
    1.3280   -3.4575    0.0000 C   0  0  0  0  0  0  0  0  0  0  0  0
    1.9979   -2.3090    0.0000 C   0  0  0  0  0  0  0  0  0  0  0  0
    1.3280   -1.1605    0.0000 O   0  0  0  0  0  0  0  0  0  0  0  0
    3.3259   -2.3090    0.0000 O   0  0  0  0  0  0  0  0  0  0  0  0
    0.0000   -1.1605    0.0000 C   0  0  0  0  0  0  0  0  0  0  0  0
  1  2  1  0  0  0  0 
  2  3  1  0  0  0  0 
  3  4  1  0  0  0  0 
  4  5  1  0  0  0  0 
  5  6  1  0  0  0  0 
  6  7  2  0  0  0  0 
  7  8  1  0  0  0  0 
  8  9  1  0  0  0  0 
  9 10  2  0  0  0  0 
 10 11  1  0  0  0  0 
 11 12  1  0  0  0  0 
 12 13  1  0  0  0  0 
 13 14  1  0  0  0  0 
 14 15  1  0  0  0  0 
 15 16  1  0  0  0  0 
 16 17  1  0  0  0  0 
 17 18  1  0  0  0  0 
 18 19  1  0  0  0  0 
 18 20  2  0  0  0  0 
 19 21  1  0  0  0  0 
M  END
> <Name>
METHYL LINOLEATE

> <Source>
DSSTox2DMolFile

> <Tox>
-5.435

> <CAS>
112-63-0

$$$$

  CDK

 15 14  0  0  0  0  0  0  0  0999 V2000
    6.9385    0.4992    0.0000 C   0  0  0  0  0  0  0  0  0  0  0  0
    6.0400    0.0000    0.0000 C   0  0  0  0  0  0  0  0  0  0  0  0
    7.7871    0.0000    0.0000 C   0  0  0  0  0  0  0  0  0  0  0  0
    5.1914    0.4992    0.0000 C   0  0  0  0  0  0  0  0  0  0  0  0
    8.6357    0.4992    0.0000 C   0  0  0  0  0  0  0  0  0  0  0  0
    4.3428    0.0000    0.0000 C   0  0  0  0  0  0  0  0  0  0  0  0
    9.5342    0.0000    0.0000 C   0  0  0  0  0  0  0  0  0  0  0  0
    3.4443    0.4992    0.0000 C   0  0  0  0  0  0  0  0  0  0  0  0
   10.3828    0.4992    0.0000 C   0  0  0  0  0  0  0  0  0  0  0  0
    2.5957    0.0000    0.0000 C   0  0  0  0  0  0  0  0  0  0  0  0
   11.2314    0.0000    0.0000 C   0  0  0  0  0  0  0  0  0  0  0  0
    1.7471    0.4992    0.0000 C   0  0  0  0  0  0  0  0  0  0  0  0
   12.1299    0.4992    0.0000 Br  0  0  0  0  0  0  0  0  0  0  0  0
    0.8486    0.0000    0.0000 C   0  0  0  0  0  0  0  0  0  0  0  0
    0.0000    0.4992    0.0000 C   0  0  0  0  0  0  0  0  0  0  0  0
  1  2  1  0  0  0  0 
  1  3  1  0  0  0  0 
  2  4  1  0  0  0  0 
  3  5  1  0  0  0  0 
  4  6  1  0  0  0  0 
  5  7  1  0  0  0  0 
  6  8  1  0  0  0  0 
  7  9  1  0  0  0  0 
  8 10  1  0  0  0  0 
  9 11  1  0  0  0  0 
 10 12  1  0  0  0  0 
 11 13  1  0  0  0  0 
 12 14  1  0  0  0  0 
 14 15  1  0  0  0  0 
M  END
> <Name>
1-BROMO-N-TETRADECANE

> <Source>
NIST2DMolFile

> <Tox>
-3.348

> <CAS>
112-71-0

$$$$

  CDK

 15 14  0  0  0  0  0  0  0  0999 V2000
    1.1949   -0.0000    0.0000 C   0  0  0  0  0  0  0  0  0  0  0  0
    2.3253   -0.6621    0.0000 C   0  0  0  0  0  0  0  0  0  0  0  0
    0.0000   -0.6621    0.0000 O   0  0  0  0  0  0  0  0  0  0  0  0
    3.5041   -0.0000    0.0000 C   0  0  0  0  0  0  0  0  0  0  0  0
    4.6183   -0.6621    0.0000 C   0  0  0  0  0  0  0  0  0  0  0  0
    5.8132   -0.0000    0.0000 C   0  0  0  0  0  0  0  0  0  0  0  0
    6.9435   -0.6621    0.0000 C   0  0  0  0  0  0  0  0  0  0  0  0
    8.0739   -0.0000    0.0000 C   0  0  0  0  0  0  0  0  0  0  0  0
    9.2527   -0.6621    0.0000 C   0  0  0  0  0  0  0  0  0  0  0  0
   10.3991   -0.0000    0.0000 C   0  0  0  0  0  0  0  0  0  0  0  0
   11.5779   -0.6621    0.0000 C   0  0  0  0  0  0  0  0  0  0  0  0
   12.6921   -0.0000    0.0000 C   0  0  0  0  0  0  0  0  0  0  0  0
   13.8870   -0.6621    0.0000 C   0  0  0  0  0  0  0  0  0  0  0  0
   15.0174   -0.0000    0.0000 C   0  0  0  0  0  0  0  0  0  0  0  0
   16.1477   -0.6621    0.0000 C   0  0  0  0  0  0  0  0  0  0  0  0
  1  2  1  0  0  0  0 
  1  3  1  0  0  0  0 
  2  4  1  0  0  0  0 
  4  5  1  0  0  0  0 
  5  6  1  0  0  0  0 
  6  7  1  0  0  0  0 
  7  8  1  0  0  0  0 
  8  9  1  0  0  0  0 
  9 10  1  0  0  0  0 
 10 11  1  0  0  0  0 
 11 12  1  0  0  0  0 
 12 13  1  0  0  0  0 
 13 14  1  0  0  0  0 
 14 15  1  0  0  0  0 
M  END
> <Name>
1-TETRADECANOL

> <Source>
DSSTox2DMolFile

> <Tox>
-3.959

> <CAS>
112-72-1

$$$$

  CDK

 20 19  0  0  0  0  0  0  0  0999 V2000
    0.6647   -1.1497    0.0000 C   0  0  0  0  0  0  0  0  0  0  0  0
    0.0000   -2.2995    0.0000 O   0  0  0  0  0  0  0  0  0  0  0  0
    0.0000   -0.0000    0.0000 O   0  0  0  0  0  0  0  0  0  0  0  0
    1.9941   -1.1497    0.0000 C   0  0  0  0  0  0  0  0  0  0  0  0
    2.6588   -2.3175    0.0000 C   0  0  0  0  0  0  0  0  0  0  0  0
    3.9882   -2.3175    0.0000 C   0  0  0  0  0  0  0  0  0  0  0  0
    4.6529   -3.4672    0.0000 C   0  0  0  0  0  0  0  0  0  0  0  0
    5.9823   -3.4672    0.0000 C   0  0  0  0  0  0  0  0  0  0  0  0
    6.6470   -4.6169    0.0000 C   0  0  0  0  0  0  0  0  0  0  0  0
    7.9764   -4.6349    0.0000 C   0  0  0  0  0  0  0  0  0  0  0  0
    8.6410   -5.7847    0.0000 C   0  0  0  0  0  0  0  0  0  0  0  0
    9.9704   -5.7847    0.0000 C   0  0  0  0  0  0  0  0  0  0  0  0
   10.6351   -4.6349    0.0000 C   0  0  0  0  0  0  0  0  0  0  0  0
   11.9645   -4.6349    0.0000 C   0  0  0  0  0  0  0  0  0  0  0  0
   12.6292   -3.4852    0.0000 C   0  0  0  0  0  0  0  0  0  0  0  0
   13.9586   -3.4852    0.0000 C   0  0  0  0  0  0  0  0  0  0  0  0
   14.6413   -2.3354    0.0000 C   0  0  0  0  0  0  0  0  0  0  0  0
   15.9707   -2.3354    0.0000 C   0  0  0  0  0  0  0  0  0  0  0  0
   16.6354   -1.1857    0.0000 C   0  0  0  0  0  0  0  0  0  0  0  0
   17.9648   -1.2036    0.0000 C   0  0  0  0  0  0  0  0  0  0  0  0
  1  2  2  0  0  0  0 
  1  3  1  0  0  0  0 
  1  4  1  0  0  0  0 
  4  5  1  0  0  0  0 
  5  6  1  0  0  0  0 
  7  6  1  0  0  0  0 
  8  7  1  0  0  0  0 
  9  8  1  0  0  0  0 
 10  9  1  0  0  0  0 
 11 10  1  0  0  0  0 
 12 11  2  0  0  0  0 
 12 13  1  0  0  0  0 
 13 14  1  0  0  0  0 
 14 15  1  0  0  0  0 
 16 15  1  0  0  0  0 
 17 16  1  0  0  0  0 
 18 17  1  0  0  0  0 
 19 18  1  0  0  0  0 
 19 20  1  0  0  0  0 
M  END
> <Name>
OLEIC ACID

> <Source>
DSSTox2DMolFile

> <Tox>
-5.854

> <CAS>
112-80-1

$$$$

  CDK

 17 16  0  0  0  0  0  0  0  0999 V2000
    0.9251    0.0000    0.0000 C   0  0  0  0  0  0  0  0  0  0  0  0
    1.7987    0.4625    0.0000 C   0  0  0  0  0  0  0  0  0  0  0  0
    0.0000    0.4625    0.0000 C   0  0  0  0  0  0  0  0  0  0  0  0
    2.6724    0.0000    0.0000 C   0  0  0  0  0  0  0  0  0  0  0  0
    3.5974    0.4625    0.0000 C   0  0  0  0  0  0  0  0  0  0  0  0
    4.4197    0.0000    0.0000 C   0  0  0  0  0  0  0  0  0  0  0  0
    5.2933    0.4625    0.0000 C   0  0  0  0  0  0  0  0  0  0  0  0
    6.2184    0.0000    0.0000 C   0  0  0  0  0  0  0  0  0  0  0  0
    7.0921    0.4625    0.0000 C   0  0  0  0  0  0  0  0  0  0  0  0
    7.9657    0.0000    0.0000 C   0  0  0  0  0  0  0  0  0  0  0  0
    8.8394    0.4625    0.0000 C   0  0  0  0  0  0  0  0  0  0  0  0
    9.7644    0.0000    0.0000 C   0  0  0  0  0  0  0  0  0  0  0  0
   10.6381    0.4625    0.0000 C   0  0  0  0  0  0  0  0  0  0  0  0
   11.5117    0.0000    0.0000 C   0  0  0  0  0  0  0  0  0  0  0  0
   12.4368    0.4625    0.0000 C   0  0  0  0  0  0  0  0  0  0  0  0
   13.3104    0.0000    0.0000 C   0  0  0  0  0  0  0  0  0  0  0  0
   14.1841    0.4625    0.0000 Br  0  0  0  0  0  0  0  0  0  0  0  0
  1  2  1  0  0  0  0 
  1  3  1  0  0  0  0 
  2  4  1  0  0  0  0 
  4  5  1  0  0  0  0 
  5  6  1  0  0  0  0 
  6  7  1  0  0  0  0 
  7  8  1  0  0  0  0 
  8  9  1  0  0  0  0 
  9 10  1  0  0  0  0 
 10 11  1  0  0  0  0 
 11 12  1  0  0  0  0 
 12 13  1  0  0  0  0 
 13 14  1  0  0  0  0 
 14 15  1  0  0  0  0 
 15 16  1  0  0  0  0 
 16 17  1  0  0  0  0 
M  END
> <Name>
1-BROMOHEXADECANE

> <Source>
NIST2DMolFile

> <Tox>
-4.314

> <CAS>
112-82-3

$$$$

  CDK

 18 17  0  0  0  0  0  0  0  0999 V2000
    0.0000   -0.6656    0.0000 C   0  0  0  0  0  0  0  0  0  0  0  0
    1.1549   -0.0000    0.0000 C   0  0  0  0  0  0  0  0  0  0  0  0
    2.3099   -0.6656    0.0000 C   0  0  0  0  0  0  0  0  0  0  0  0
    3.4648   -0.0000    0.0000 C   0  0  0  0  0  0  0  0  0  0  0  0
    4.6198   -0.6656    0.0000 C   0  0  0  0  0  0  0  0  0  0  0  0
    5.7551   -0.0000    0.0000 C   0  0  0  0  0  0  0  0  0  0  0  0
    6.9101   -0.6656    0.0000 C   0  0  0  0  0  0  0  0  0  0  0  0
    8.0650   -0.0000    0.0000 C   0  0  0  0  0  0  0  0  0  0  0  0
    9.2199   -0.6656    0.0000 C   0  0  0  0  0  0  0  0  0  0  0  0
   10.3553   -0.0000    0.0000 C   0  0  0  0  0  0  0  0  0  0  0  0
   11.5102   -0.6656    0.0000 C   0  0  0  0  0  0  0  0  0  0  0  0
   12.6652   -0.0000    0.0000 C   0  0  0  0  0  0  0  0  0  0  0  0
   13.8201   -0.6656    0.0000 C   0  0  0  0  0  0  0  0  0  0  0  0
   14.9555   -0.0000    0.0000 C   0  0  0  0  0  0  0  0  0  0  0  0
   16.1104   -0.6656    0.0000 C   0  0  0  0  0  0  0  0  0  0  0  0
   17.2654   -0.0000    0.0000 C   0  0  0  0  0  0  0  0  0  0  0  0
   18.4203   -0.6656    0.0000 C   0  0  0  0  0  0  0  0  0  0  0  0
   19.5752   -0.0000    0.0000 C   0  0  0  0  0  0  0  0  0  0  0  0
  1  2  2  0  0  0  0 
  2  3  1  0  0  0  0 
  3  4  1  0  0  0  0 
  4  5  1  0  0  0  0 
  5  6  1  0  0  0  0 
  6  7  1  0  0  0  0 
  7  8  1  0  0  0  0 
  8  9  1  0  0  0  0 
  9 10  1  0  0  0  0 
 10 11  1  0  0  0  0 
 11 12  1  0  0  0  0 
 12 13  1  0  0  0  0 
 13 14  1  0  0  0  0 
 14 15  1  0  0  0  0 
 15 16  1  0  0  0  0 
 16 17  1  0  0  0  0 
 17 18  1  0  0  0  0 
M  END
> <Name>
1-OCTADECENE

> <Source>
DSSTox2DMolFile

> <Tox>
-4.171

> <CAS>
112-88-9

$$$$

  CDK

 19 18  0  0  0  0  0  0  0  0999 V2000
    8.6446    0.4997    0.0000 C   0  0  0  0  0  0  0  0  0  0  0  0
    7.7951    0.0000    0.0000 C   0  0  0  0  0  0  0  0  0  0  0  0
    9.5440    0.0000    0.0000 C   0  0  0  0  0  0  0  0  0  0  0  0
    6.9457    0.4997    0.0000 C   0  0  0  0  0  0  0  0  0  0  0  0
   10.3935    0.4997    0.0000 C   0  0  0  0  0  0  0  0  0  0  0  0
    6.0462    0.0000    0.0000 C   0  0  0  0  0  0  0  0  0  0  0  0
   11.2430    0.0000    0.0000 C   0  0  0  0  0  0  0  0  0  0  0  0
    5.1968    0.4997    0.0000 C   0  0  0  0  0  0  0  0  0  0  0  0
   12.1424    0.4997    0.0000 C   0  0  0  0  0  0  0  0  0  0  0  0
    4.3473    0.0000    0.0000 C   0  0  0  0  0  0  0  0  0  0  0  0
   12.9919    0.0000    0.0000 C   0  0  0  0  0  0  0  0  0  0  0  0
    3.4478    0.4997    0.0000 C   0  0  0  0  0  0  0  0  0  0  0  0
   13.8414    0.4997    0.0000 C   0  0  0  0  0  0  0  0  0  0  0  0
    2.5984    0.0000    0.0000 C   0  0  0  0  0  0  0  0  0  0  0  0
   14.7408    0.0000    0.0000 C   0  0  0  0  0  0  0  0  0  0  0  0
    1.7489    0.4997    0.0000 C   0  0  0  0  0  0  0  0  0  0  0  0
   15.5903    0.4997    0.0000 Br  0  0  0  0  0  0  0  0  0  0  0  0
    0.8495    0.0000    0.0000 C   0  0  0  0  0  0  0  0  0  0  0  0
    0.0000    0.4997    0.0000 C   0  0  0  0  0  0  0  0  0  0  0  0
  1  2  1  0  0  0  0 
  1  3  1  0  0  0  0 
  2  4  1  0  0  0  0 
  3  5  1  0  0  0  0 
  4  6  1  0  0  0  0 
  5  7  1  0  0  0  0 
  6  8  1  0  0  0  0 
  7  9  1  0  0  0  0 
  8 10  1  0  0  0  0 
  9 11  1  0  0  0  0 
 10 12  1  0  0  0  0 
 11 13  1  0  0  0  0 
 12 14  1  0  0  0  0 
 13 15  1  0  0  0  0 
 14 16  1  0  0  0  0 
 15 17  1  0  0  0  0 
 16 18  1  0  0  0  0 
 18 19  1  0  0  0  0 
M  END
> <Name>
1-BROMOOCTADECANE

> <Source>
NIST2DMolFile

> <Tox>
-5.226

> <CAS>
112-89-0

$$$$

  CDK

 19 18  0  0  0  0  0  0  0  0999 V2000
    1.1617   -0.6638    0.0000 C   0  0  0  0  0  0  0  0  0  0  0  0
    2.3026   -0.0000    0.0000 C   0  0  0  0  0  0  0  0  0  0  0  0
    0.0000   -0.0000    0.0000 O   0  0  0  0  0  0  0  0  0  0  0  0
    3.4643   -0.6638    0.0000 C   0  0  0  0  0  0  0  0  0  0  0  0
    4.6260   -0.0000    0.0000 C   0  0  0  0  0  0  0  0  0  0  0  0
    5.7462   -0.6638    0.0000 C   0  0  0  0  0  0  0  0  0  0  0  0
    6.9079   -0.0000    0.0000 C   0  0  0  0  0  0  0  0  0  0  0  0
    8.0696   -0.6638    0.0000 C   0  0  0  0  0  0  0  0  0  0  0  0
    9.2105   -0.0000    0.0000 C   0  0  0  0  0  0  0  0  0  0  0  0
   10.3722   -0.6638    0.0000 C   0  0  0  0  0  0  0  0  0  0  0  0
   11.5339   -0.0000    0.0000 C   0  0  0  0  0  0  0  0  0  0  0  0
   12.6749   -0.6638    0.0000 C   0  0  0  0  0  0  0  0  0  0  0  0
   13.8366   -0.0000    0.0000 C   0  0  0  0  0  0  0  0  0  0  0  0
   14.9983   -0.6638    0.0000 C   0  0  0  0  0  0  0  0  0  0  0  0
   16.1185   -0.0000    0.0000 C   0  0  0  0  0  0  0  0  0  0  0  0
   17.2801   -0.6638    0.0000 C   0  0  0  0  0  0  0  0  0  0  0  0
   18.4418   -0.0000    0.0000 C   0  0  0  0  0  0  0  0  0  0  0  0
   19.5828   -0.6638    0.0000 C   0  0  0  0  0  0  0  0  0  0  0  0
   20.7445   -0.0000    0.0000 C   0  0  0  0  0  0  0  0  0  0  0  0
  1  2  1  0  0  0  0 
  1  3  1  0  0  0  0 
  2  4  1  0  0  0  0 
  4  5  1  0  0  0  0 
  5  6  1  0  0  0  0 
  6  7  1  0  0  0  0 
  7  8  1  0  0  0  0 
  8  9  1  0  0  0  0 
  9 10  1  0  0  0  0 
 10 11  1  0  0  0  0 
 11 12  1  0  0  0  0 
 12 13  1  0  0  0  0 
 13 14  1  0  0  0  0 
 14 15  1  0  0  0  0 
 15 16  1  0  0  0  0 
 16 17  1  0  0  0  0 
 17 18  1  0  0  0  0 
 18 19  1  0  0  0  0 
M  END
> <Name>
1-OCTADECANOL

> <Source>
DSSTox2DMolFile

> <Tox>
-5.569

> <CAS>
112-92-5

$$$$

  CDK

 20 19  0  0  0  0  0  0  0  0999 V2000
    0.0000   -0.6586    0.0000 C   0  0  0  0  0  0  0  0  0  0  0  0
    1.1636   -0.0000    0.0000 C   0  0  0  0  0  0  0  0  0  0  0  0
    2.3052   -0.6586    0.0000 C   0  0  0  0  0  0  0  0  0  0  0  0
    3.4687   -0.0000    0.0000 C   0  0  0  0  0  0  0  0  0  0  0  0
    4.6323   -0.6586    0.0000 C   0  0  0  0  0  0  0  0  0  0  0  0
    5.7739   -0.0000    0.0000 C   0  0  0  0  0  0  0  0  0  0  0  0
    6.9374   -0.6586    0.0000 C   0  0  0  0  0  0  0  0  0  0  0  0
    8.0790   -0.0000    0.0000 C   0  0  0  0  0  0  0  0  0  0  0  0
    9.2426   -0.6586    0.0000 C   0  0  0  0  0  0  0  0  0  0  0  0
   10.4061   -0.0000    0.0000 C   0  0  0  0  0  0  0  0  0  0  0  0
   11.5477   -0.6586    0.0000 C   0  0  0  0  0  0  0  0  0  0  0  0
   12.7113   -0.0000    0.0000 C   0  0  0  0  0  0  0  0  0  0  0  0
   13.8748   -0.6586    0.0000 C   0  0  0  0  0  0  0  0  0  0  0  0
   15.0164   -0.0000    0.0000 C   0  0  0  0  0  0  0  0  0  0  0  0
   16.1800   -0.6586    0.0000 C   0  0  0  0  0  0  0  0  0  0  0  0
   17.3216   -0.0000    0.0000 C   0  0  0  0  0  0  0  0  0  0  0  0
   18.4851   -0.6586    0.0000 C   0  0  0  0  0  0  0  0  0  0  0  0
   19.6487   -0.0000    0.0000 C   0  0  0  0  0  0  0  0  0  0  0  0
   20.7903   -0.6586    0.0000 C   0  0  0  0  0  0  0  0  0  0  0  0
   21.9538   -0.0000    0.0000 C   0  0  0  0  0  0  0  0  0  0  0  0
  1  2  1  0  0  0  0 
  2  3  1  0  0  0  0 
  3  4  1  0  0  0  0 
  4  5  1  0  0  0  0 
  5  6  1  0  0  0  0 
  6  7  1  0  0  0  0 
  7  8  1  0  0  0  0 
  8  9  1  0  0  0  0 
  9 10  1  0  0  0  0 
 10 11  1  0  0  0  0 
 11 12  1  0  0  0  0 
 12 13  1  0  0  0  0 
 13 14  1  0  0  0  0 
 14 15  1  0  0  0  0 
 15 16  1  0  0  0  0 
 16 17  1  0  0  0  0 
 17 18  1  0  0  0  0 
 18 19  1  0  0  0  0 
 19 20  1  0  0  0  0 
M  END
> <Name>
EICOSANE

> <Source>
DSSTox2DMolFile

> <Tox>
-5.335

> <CAS>
112-95-8

$$$$

  CDK

  3  2  0  0  0  0  0  0  0  0999 V2000
    2.3030   -0.6656    0.0000 C   0  0  0  0  0  0  0  0  0  0  0  0
    1.1515   -0.0000    0.0000 C   0  0  0  0  0  0  0  0  0  0  0  0
    0.0000   -0.6656    0.0000 C   0  0  0  0  0  0  0  0  0  0  0  0
  1  2  1  0  0  0  0 
  2  3  2  0  0  0  0 
M  END
> <Name>
PROPENE

> <Source>
DSSTox2DMolFile

> <Tox>
3.939

> <CAS>
115-07-1

$$$$

  CDK

  3  2  0  0  0  0  0  0  0  0999 V2000
    0.0000   -0.6638    0.0000 C   0  0  0  0  0  0  0  0  0  0  0  0
    1.1525   -0.0000    0.0000 O   0  0  0  0  0  0  0  0  0  0  0  0
    2.3050   -0.6638    0.0000 C   0  0  0  0  0  0  0  0  0  0  0  0
  1  2  1  0  0  0  0 
  3  2  1  0  0  0  0 
M  END
> <Name>
DIMETHYL ETHER

> <Source>
DSSTox2DMolFile

> <Tox>
3.648

> <CAS>
115-10-6

$$$$

  CDK

  4  3  0  0  0  0  0  0  0  0999 V2000
    1.1459   -1.3361    0.0000 C   0  0  0  0  0  0  0  0  0  0  0  0
    0.0000   -2.0053    0.0000 C   0  0  0  0  0  0  0  0  0  0  0  0
    2.2917   -2.0053    0.0000 C   0  0  0  0  0  0  0  0  0  0  0  0
    1.1459   -0.0000    0.0000 C   0  0  0  0  0  0  0  0  0  0  0  0
  1  2  2  0  0  0  0 
  1  3  1  0  0  0  0 
  1  4  1  0  0  0  0 
M  END
> <Name>
ISOBUTENE

> <Source>
DSSTox2DMolFile

> <Tox>
3.364

> <CAS>
115-11-7

$$$$

  CDK

  6  5  0  0  0  0  0  0  0  0999 V2000
    0.4870   -0.0000    0.0000 Br  0  0  0  0  0  0  0  0  0  0  0  0
    1.1503   -1.1537    0.0000 C   0  0  0  0  0  0  0  0  0  0  0  0
    1.8169   -2.3040    0.0000 Br  0  0  0  0  0  0  0  0  0  0  0  0
    0.0000   -1.8169    0.0000 Br  0  0  0  0  0  0  0  0  0  0  0  0
    2.3040   -0.4870    0.0000 C   0  0  0  0  0  0  0  0  0  0  0  0
    3.4542   -1.1537    0.0000 O   0  0  0  0  0  0  0  0  0  0  0  0
  1  2  1  0  0  0  0 
  2  3  1  0  0  0  0 
  2  4  1  0  0  0  0 
  2  5  1  0  0  0  0 
  5  6  2  0  0  0  0 
M  END
> <Name>
TRIBROMOACETALDEHYDE

> <Source>
DSSTox2DMolFile

> <Tox>
0.182

> <CAS>
115-17-3

$$$$

  CDK

  6  5  0  0  0  0  0  0  0  0999 V2000
    0.0000   -2.6608    0.0000 C   0  0  0  0  0  0  0  0  0  0  0  0
    1.3284   -2.6608    0.0000 C   0  0  0  0  0  0  0  0  0  0  0  0
    2.6608   -2.6608    0.0000 O   0  0  0  0  0  0  0  0  0  0  0  0
    1.3284   -3.9892    0.0000 C   0  0  0  0  0  0  0  0  0  0  0  0
    1.3284   -1.3284    0.0000 C   0  0  0  0  0  0  0  0  0  0  0  0
    1.3284   -0.0000    0.0000 C   0  0  0  0  0  0  0  0  0  0  0  0
  1  2  1  0  0  0  0 
  2  3  1  0  0  0  0 
  2  4  1  0  0  0  0 
  2  5  1  0  0  0  0 
  5  6  3  0  0  0  0 
M  END
> <Name>
2-METHYL-3-BUTYN-2-OL

> <Source>
DSSTox2DMolFile

> <Tox>
1.204

> <CAS>
115-19-5

$$$$

  CDK

  6  5  0  0  0  0  0  0  0  0999 V2000
    1.3289   -2.0017    0.0000 Si  0  0  0  0  0  0  0  0  0  0  0  0
    2.6578   -2.0017    0.0000 Cl  0  0  0  0  0  0  0  0  0  0  0  0
    0.0000   -2.0017    0.0000 Cl  0  0  0  0  0  0  0  0  0  0  0  0
    1.3289   -3.3306    0.0000 Cl  0  0  0  0  0  0  0  0  0  0  0  0
    1.3289   -0.6728    0.0000 C   0  0  0  0  0  0  0  0  0  0  0  0
    0.1765   -0.0000    0.0000 C   0  0  0  0  0  0  0  0  0  0  0  0
  1  2  1  0  0  0  0 
  1  3  1  0  0  0  0 
  1  4  1  0  0  0  0 
  1  5  1  0  0  0  0 
  5  6  1  0  0  0  0 
M  END
> <Name>
ETHYLTRICHLOROSILANE

> <Source>
DSSTox2DMolFile

> <Tox>
1.674

> <CAS>
115-21-9

$$$$

  CDK

 12 12  0  0  0  0  0  0  0  0999 V2000
    1.4142    0.7071    0.0000 C   0  0  0  0  0  0  0  0  0  0  0  0
    2.1213    0.0000    0.0000 F   0  0  0  0  0  0  0  0  0  0  0  0
    0.7071    0.0000    0.0000 F   0  0  0  0  0  0  0  0  0  0  0  0
    0.7071    1.4142    0.0000 C   0  0  0  0  0  0  0  0  0  0  0  0
    2.1213    1.4142    0.0000 C   0  0  0  0  0  0  0  0  0  0  0  0
    0.0000    2.1213    0.0000 F   0  0  0  0  0  0  0  0  0  0  0  0
    0.0000    0.7071    0.0000 F   0  0  0  0  0  0  0  0  0  0  0  0
    1.4142    2.1213    0.0000 C   0  0  0  0  0  0  0  0  0  0  0  0
    2.8284    2.1213    0.0000 F   0  0  0  0  0  0  0  0  0  0  0  0
    2.8284    0.7071    0.0000 F   0  0  0  0  0  0  0  0  0  0  0  0
    2.1213    2.8284    0.0000 F   0  0  0  0  0  0  0  0  0  0  0  0
    0.7071    2.8284    0.0000 F   0  0  0  0  0  0  0  0  0  0  0  0
  1  2  1  0  0  0  0 
  1  3  1  0  0  0  0 
  1  4  1  0  0  0  0 
  5  1  1  0  0  0  0 
  4  6  1  0  0  0  0 
  4  7  1  0  0  0  0 
  4  8  1  0  0  0  0 
  8  5  1  0  0  0  0 
  5  9  1  0  0  0  0 
  5 10  1  0  0  0  0 
  8 11  1  0  0  0  0 
  8 12  1  0  0  0  0 
M  END
> <Name>
PERFLUOROCYCLOBUTANE

> <Source>
NIST2DMolFile

> <Tox>
3.371

> <CAS>
115-25-3

$$$$

  CDK

 19 21  0  0  0  0  0  0  0  0999 V2000
    1.8155   -4.4809    0.0000 O   0  0  0  0  0  0  0  0  0  0  0  0
    1.2461   -3.4329    0.0000 S   0  0  0  0  0  0  0  0  0  0  0  0
    2.9873   -4.6872    0.0000 C   0  0  0  0  0  0  0  0  0  0  0  0
    1.7082   -2.3436    0.0000 O   0  0  0  0  0  0  0  0  0  0  0  0
    0.0000   -3.2101    0.0000 O   0  0  0  0  0  0  0  0  0  0  0  0
    3.8703   -3.9033    0.0000 C   0  0  0  0  0  0  0  0  0  0  0  0
    2.8552   -2.0218    0.0000 C   0  0  0  0  0  0  0  0  0  0  0  0
    3.8208   -2.7150    0.0000 C   0  0  0  0  0  0  0  0  0  0  0  0
    5.3639   -3.2101    0.0000 C   0  0  0  0  0  0  0  0  0  0  0  0
    5.5124   -1.9062    0.0000 C   0  0  0  0  0  0  0  0  0  0  0  0
    6.9483   -3.8455    0.0000 C   0  0  0  0  0  0  0  0  0  0  0  0
    4.6377   -0.7509    0.0000 C   0  0  0  0  0  0  0  0  0  0  0  0
    4.9100   -4.1013    0.0000 Cl  0  0  0  0  0  0  0  0  0  0  0  0
    7.2206   -2.5417    0.0000 C   0  0  0  0  0  0  0  0  0  0  0  0
    6.3789   -1.3369    0.0000 Cl  0  0  0  0  0  0  0  0  0  0  0  0
    7.4517   -4.5965    0.0000 Cl  0  0  0  0  0  0  0  0  0  0  0  0
    5.1659   -0.0000    0.0000 Cl  0  0  0  0  0  0  0  0  0  0  0  0
    3.8785   -0.1238    0.0000 Cl  0  0  0  0  0  0  0  0  0  0  0  0
    8.2522   -2.1373    0.0000 Cl  0  0  0  0  0  0  0  0  0  0  0  0
  1  2  1  0  0  0  0 
  1  3  1  0  0  0  0 
  2  4  1  0  0  0  0 
  2  5  2  0  0  0  0 
  3  6  1  0  0  0  0 
  4  7  1  0  0  0  0 
  6  8  1  0  0  0  0 
  6  9  1  0  0  0  0 
  8  7  1  0  0  0  0 
  8 10  1  0  0  0  0 
  9 11  1  0  0  0  0 
  9 12  1  0  0  0  0 
  9 13  1  0  0  0  0 
 10 14  1  0  0  0  0 
 10 12  1  0  0  0  0 
 10 15  1  0  0  0  0 
 11 14  2  0  0  0  0 
 11 16  1  0  0  0  0 
 12 17  1  0  0  0  0 
 12 18  1  0  0  0  0 
 14 19  1  0  0  0  0 
M  END
> <Name>
ENDOSULFAN

> <Source>
DSSTox2DMolFile

> <Tox>
-6.762

> <CAS>
115-29-7

$$$$

  CDK

 20 21  0  0  0  0  0  0  0  0999 V2000
    0.0000   -5.2475    0.0000 O   0  0  0  0  0  0  0  0  0  0  0  0
    1.3138   -5.2475    0.0000 C   0  0  0  0  0  0  0  0  0  0  0  0
    1.3138   -3.9337    0.0000 C   0  0  0  0  0  0  0  0  0  0  0  0
    3.0132   -5.2475    0.0000 C   0  0  0  0  0  0  0  0  0  0  0  0
    1.3138   -6.5535    0.0000 C   0  0  0  0  0  0  0  0  0  0  0  0
    0.1731   -3.2807    0.0000 C   0  0  0  0  0  0  0  0  0  0  0  0
    2.4467   -3.2807    0.0000 C   0  0  0  0  0  0  0  0  0  0  0  0
    3.6740   -4.1067    0.0000 C   0  0  0  0  0  0  0  0  0  0  0  0
    3.6740   -6.3804    0.0000 C   0  0  0  0  0  0  0  0  0  0  0  0
    2.6198   -6.5535    0.0000 Cl  0  0  0  0  0  0  0  0  0  0  0  0
    1.3138   -7.8673    0.0000 Cl  0  0  0  0  0  0  0  0  0  0  0  0
    0.0000   -6.5535    0.0000 Cl  0  0  0  0  0  0  0  0  0  0  0  0
    0.1731   -1.9668    0.0000 C   0  0  0  0  0  0  0  0  0  0  0  0
    2.4467   -1.9668    0.0000 C   0  0  0  0  0  0  0  0  0  0  0  0
    4.9800   -4.1067    0.0000 C   0  0  0  0  0  0  0  0  0  0  0  0
    4.9800   -6.3804    0.0000 C   0  0  0  0  0  0  0  0  0  0  0  0
    1.3138   -1.3138    0.0000 C   0  0  0  0  0  0  0  0  0  0  0  0
    5.6409   -5.2475    0.0000 C   0  0  0  0  0  0  0  0  0  0  0  0
    1.3138   -0.0000    0.0000 Cl  0  0  0  0  0  0  0  0  0  0  0  0
    6.9468   -5.2475    0.0000 Cl  0  0  0  0  0  0  0  0  0  0  0  0
  1  2  1  0  0  0  0 
  2  3  1  0  0  0  0 
  2  4  1  0  0  0  0 
  2  5  1  0  0  0  0 
  3  6  2  0  0  0  0 
  3  7  1  0  0  0  0 
  4  8  2  0  0  0  0 
  4  9  1  0  0  0  0 
  5 10  1  0  0  0  0 
  5 11  1  0  0  0  0 
  5 12  1  0  0  0  0 
  6 13  1  0  0  0  0 
 14  7  2  0  0  0  0 
  8 15  1  0  0  0  0 
 16  9  2  0  0  0  0 
 13 17  2  0  0  0  0 
 17 14  1  0  0  0  0 
 15 18  2  0  0  0  0 
 18 16  1  0  0  0  0 
 17 19  1  0  0  0  0 
 18 20  1  0  0  0  0 
M  END
> <Name>
DICOFOL

> <Source>
DSSTox2DMolFile

> <Tox>
-6.400

> <CAS>
115-32-2

$$$$

  CDK

 11 10  0  0  0  0  0  0  0  0999 V2000
    0.9666   -0.8587   -1.2913 C   0  0  0  0  0  0  0  0  0  0  0  0
    0.8265    0.2541   -0.2190 C   0  0  0  0  0  0  0  0  0  0  0  0
    1.2177   -2.1439   -0.7944 O   0  0  0  0  0  0  0  0  0  0  0  0
    2.1182    0.3329    0.6271 C   0  0  0  0  0  0  0  0  0  0  0  0
    0.6580    1.5999   -0.9522 C   0  0  0  0  0  0  0  0  0  0  0  0
   -0.3968   -0.0280    0.6681 C   0  0  0  0  0  0  0  0  0  0  0  0
    2.3156   -0.8900    1.3058 O   0  0  0  0  0  0  0  0  0  0  0  0
    0.6062    2.8012   -0.0319 C   0  0  0  0  0  0  0  0  0  0  0  0
   -1.6896   -0.0453   -0.1354 C   0  0  0  0  0  0  0  0  0  0  0  0
   -2.8928   -0.3291    0.7450 C   0  0  0  0  0  0  0  0  0  0  0  0
   -4.1737   -0.3430   -0.0583 C   0  0  0  0  0  0  0  0  0  0  0  0
  1  2  1  0  0  0  0 
  1  3  1  0  0  0  0 
  2  4  1  0  0  0  0 
  2  5  1  0  0  0  0 
  2  6  1  0  0  0  0 
  4  7  1  0  0  0  0 
  5  8  1  0  0  0  0 
  6  9  1  0  0  0  0 
  9 10  1  0  0  0  0 
 10 11  1  0  0  0  0 
M  END
> <Name>
1,3-Propanediol, 2-butyl-2-ethyl-

> <Source>
DougDB3DMolFile

> <Tox>
-4.000

> <CAS>
115-84-4

$$$$

  CDK

 12 11  0  0  0  0  0  0  0  0999 V2000
    0.8456   -0.6672    0.0000 C   0  0  0  0  0  0  0  0  0  0  0  0
    1.9938   -1.3343    0.0000 C   0  0  0  0  0  0  0  0  0  0  0  0
    3.1497   -1.9938    0.0000 C   0  0  0  0  0  0  0  0  0  0  0  0
    1.3343   -2.4825    0.0000 S   0  0  0  0  0  0  0  0  0  0  0  0
    2.6609   -0.1784    0.0000 C   0  0  0  0  0  0  0  0  0  0  0  0
    4.2978   -1.3343    0.0000 N   0  0  0  0  0  0  0  0  0  0  0  0
    0.0000   -2.4825    0.0000 C   0  0  0  0  0  0  0  0  0  0  0  0
    5.4537   -1.9938    0.0000 O   0  0  0  0  0  0  0  0  0  0  0  0
    6.6019   -1.3343    0.0000 C   0  0  0  0  0  0  0  0  0  0  0  0
    6.6019   -0.0000    0.0000 O   0  0  0  0  0  0  0  0  0  0  0  0
    7.7578   -1.9938    0.0000 N   0  0  0  0  0  0  0  0  0  0  0  0
    7.7578   -3.3281    0.0000 C   0  0  0  0  0  0  0  0  0  0  0  0
  1  2  1  0  0  0  0 
  2  3  1  0  0  0  0 
  2  4  1  0  0  0  0 
  2  5  1  0  0  0  0 
  3  6  2  0  0  0  0 
  4  7  1  0  0  0  0 
  6  8  1  0  0  0  0 
  8  9  1  0  0  0  0 
  9 10  2  0  0  0  0 
  9 11  1  0  0  0  0 
 11 12  1  0  0  0  0 
M  END
> <Name>
ALDICARB

> <Source>
DSSTox2DMolFile

> <Tox>
-4.460

> <CAS>
116-06-3

$$$$

  CDK

  5  4  0  0  0  0  0  0  0  0999 V2000
    0.4874    1.4568    0.0003 C   0  0  0  0  0  0  0  0  0  0  0  0
    0.4837    0.1191    0.0006 C   0  0  0  0  0  0  0  0  0  0  0  0
    1.7232   -0.7130   -0.0010 C   0  0  0  0  0  0  0  0  0  0  0  0
   -0.6343   -0.6935    0.0019 O   0  0  0  0  0  0  0  0  0  0  0  0
   -1.8907   -0.0632   -0.0015 C   0  0  0  0  0  0  0  0  0  0  0  0
  1  2  2  0  0  0  0 
  2  3  1  0  0  0  0 
  2  4  1  0  0  0  0 
  4  5  1  0  0  0  0 
M  END
> <Name>
ISOPROPENYL METHYL ETHER

> <Source>
DougDB3DMolFile

> <Tox>
2.713

> <CAS>
116-11-0

$$$$

  CDK

  9  8  0  0  0  0  0  0  0  0999 V2000
    0.6575   -2.3068    0.0000 C   0  0  0  0  0  0  0  0  0  0  0  0
    1.9876   -2.3068    0.0000 C   0  0  0  0  0  0  0  0  0  0  0  0
    0.0000   -1.1515    0.0000 F   0  0  0  0  0  0  0  0  0  0  0  0
    0.0000   -3.4621    0.0000 F   0  0  0  0  0  0  0  0  0  0  0  0
    2.6602   -1.1515    0.0000 C   0  0  0  0  0  0  0  0  0  0  0  0
    2.6602   -3.4621    0.0000 F   0  0  0  0  0  0  0  0  0  0  0  0
    3.8003   -1.8280    0.0000 F   0  0  0  0  0  0  0  0  0  0  0  0
    1.5087   -0.4940    0.0000 F   0  0  0  0  0  0  0  0  0  0  0  0
    3.3177   -0.0000    0.0000 F   0  0  0  0  0  0  0  0  0  0  0  0
  1  2  2  0  0  0  0 
  1  3  1  0  0  0  0 
  1  4  1  0  0  0  0 
  2  5  1  0  0  0  0 
  2  6  1  0  0  0  0 
  5  7  1  0  0  0  0 
  5  8  1  0  0  0  0 
  5  9  1  0  0  0  0 
M  END
> <Name>
HEXAFLUOROPROPENE

> <Source>
DSSTox2DMolFile

> <Tox>
3.690

> <CAS>
116-15-4

$$$$

  CDK

  7  6  0  0  0  0  0  0  0  0999 V2000
    0.8522    0.0000    0.0000 Cl  0  0  0  0  0  0  0  0  0  0  0  0
    0.8522    1.0026    0.0000 C   0  0  0  0  0  0  0  0  0  0  0  0
    0.0000    1.5040    0.0000 Cl  0  0  0  0  0  0  0  0  0  0  0  0
    1.7045    1.5040    0.0000 C   0  0  0  0  0  0  0  0  0  0  0  0
    2.6069    1.0026    0.0000 O   0  0  0  0  0  0  0  0  0  0  0  0
    1.7045    2.5066    0.0000 O   0  0  0  0  0  0  0  0  0  0  0  0
    3.5594    1.2533    0.0000 C   0  0  0  0  0  0  0  0  0  0  0  0
  1  2  1  0  0  0  0 
  2  3  1  0  0  0  0 
  2  4  1  0  0  0  0 
  4  5  1  0  0  0  0 
  4  6  2  0  0  0  0 
  7  5  1  0  0  0  0 
M  END
> <Name>
METHYL DICHLOROACETATE

> <Source>
NIST2DMolFile

> <Tox>
0.653

> <CAS>
116-54-1

$$$$

  CDK

 17 19  0  0  0  0  0  0  0  0999 V2000
    3.3283   -0.0000    0.0000 O   0  0  0  0  0  0  0  0  0  0  0  0
    3.9907   -1.1493    0.0000 C   0  0  0  0  0  0  0  0  0  0  0  0
    3.3283   -2.2987    0.0000 C   0  0  0  0  0  0  0  0  0  0  0  0
    5.3236   -1.1493    0.0000 C   0  0  0  0  0  0  0  0  0  0  0  0
    1.9954   -2.2987    0.0000 C   0  0  0  0  0  0  0  0  0  0  0  0
    3.9907   -3.4560    0.0000 C   0  0  0  0  0  0  0  0  0  0  0  0
    5.9861   -2.2987    0.0000 C   0  0  0  0  0  0  0  0  0  0  0  0
    5.9861   -0.0000    0.0000 C   0  0  0  0  0  0  0  0  0  0  0  0
    1.3329   -3.4560    0.0000 C   0  0  0  0  0  0  0  0  0  0  0  0
    3.3283   -4.6053    0.0000 C   0  0  0  0  0  0  0  0  0  0  0  0
    5.3236   -3.4560    0.0000 C   0  0  0  0  0  0  0  0  0  0  0  0
    7.3190   -2.2987    0.0000 C   0  0  0  0  0  0  0  0  0  0  0  0
    7.3190   -0.0000    0.0000 C   0  0  0  0  0  0  0  0  0  0  0  0
    1.9954   -4.6053    0.0000 C   0  0  0  0  0  0  0  0  0  0  0  0
    0.0000   -3.4560    0.0000 N   0  0  0  0  0  0  0  0  0  0  0  0
    5.9861   -4.6053    0.0000 O   0  0  0  0  0  0  0  0  0  0  0  0
    7.9814   -1.1493    0.0000 C   0  0  0  0  0  0  0  0  0  0  0  0
  1  2  2  0  0  0  0 
  2  3  1  0  0  0  0 
  2  4  1  0  0  0  0 
  3  5  2  0  0  0  0 
  3  6  1  0  0  0  0 
  7  4  2  0  0  0  0 
  4  8  1  0  0  0  0 
  5  9  1  0  0  0  0 
 10  6  2  0  0  0  0 
  6 11  1  0  0  0  0 
 11  7  1  0  0  0  0 
  7 12  1  0  0  0  0 
  8 13  2  0  0  0  0 
  9 14  2  0  0  0  0 
  9 15  1  0  0  0  0 
 14 10  1  0  0  0  0 
 11 16  2  0  0  0  0 
 17 12  2  0  0  0  0 
 13 17  1  0  0  0  0 
M  END
> <Name>
2-AMINOANTHRAQUINONE

> <Source>
DSSTox2DMolFile

> <Tox>
-10.301

> <CAS>
117-79-3

$$$$

  CDK

 14 15  0  0  0  0  0  0  0  0999 V2000
    0.0000   -3.9911    0.0000 O   0  0  0  0  0  0  0  0  0  0  0  0
    1.1489   -3.3269    0.0000 C   0  0  0  0  0  0  0  0  0  0  0  0
    2.3037   -3.9911    0.0000 C   0  0  0  0  0  0  0  0  0  0  0  0
    1.1489   -1.9925    0.0000 C   0  0  0  0  0  0  0  0  0  0  0  0
    3.4526   -3.3269    0.0000 C   0  0  0  0  0  0  0  0  0  0  0  0
    2.3037   -5.3194    0.0000 C   0  0  0  0  0  0  0  0  0  0  0  0
    2.3037   -1.3284    0.0000 C   0  0  0  0  0  0  0  0  0  0  0  0
    0.0000   -1.3284    0.0000 Cl  0  0  0  0  0  0  0  0  0  0  0  0
    4.6074   -3.9911    0.0000 C   0  0  0  0  0  0  0  0  0  0  0  0
    3.4526   -1.9925    0.0000 C   0  0  0  0  0  0  0  0  0  0  0  0
    3.4526   -5.9836    0.0000 C   0  0  0  0  0  0  0  0  0  0  0  0
    2.3037   -0.0000    0.0000 Cl  0  0  0  0  0  0  0  0  0  0  0  0
    4.6074   -5.3194    0.0000 C   0  0  0  0  0  0  0  0  0  0  0  0
    4.6074   -1.3284    0.0000 O   0  0  0  0  0  0  0  0  0  0  0  0
  1  2  2  0  0  0  0 
  2  3  1  0  0  0  0 
  2  4  1  0  0  0  0 
  3  5  2  0  0  0  0 
  3  6  1  0  0  0  0 
  7  4  2  0  0  0  0 
  4  8  1  0  0  0  0 
  5  9  1  0  0  0  0 
  5 10  1  0  0  0  0 
 11  6  2  0  0  0  0 
 10  7  1  0  0  0  0 
  7 12  1  0  0  0  0 
  9 13  2  0  0  0  0 
 10 14  2  0  0  0  0 
 13 11  1  0  0  0  0 
M  END
> <Name>
DICHLONE

> <Source>
DSSTox2DMolFile

> <Tox>
-5.959

> <CAS>
117-80-6

$$$$

  CDK

 28 28  0  0  0  0  0  0  0  0999 V2000
    7.9814   -3.4555    0.0000 O   0  0  0  0  0  0  0  0  0  0  0  0
    7.3086   -4.6023    0.0000 C   0  0  0  0  0  0  0  0  0  0  0  0
    7.9814   -5.7490    0.0000 C   0  0  0  0  0  0  0  0  0  0  0  0
    5.9784   -4.6023    0.0000 O   0  0  0  0  0  0  0  0  0  0  0  0
    9.3116   -5.7490    0.0000 C   0  0  0  0  0  0  0  0  0  0  0  0
    7.3086   -6.9111    0.0000 C   0  0  0  0  0  0  0  0  0  0  0  0
    5.3209   -3.4555    0.0000 C   0  0  0  0  0  0  0  0  0  0  0  0
    9.9691   -6.9111    0.0000 C   0  0  0  0  0  0  0  0  0  0  0  0
    9.9691   -4.6023    0.0000 C   0  0  0  0  0  0  0  0  0  0  0  0
    7.9814   -8.0578    0.0000 C   0  0  0  0  0  0  0  0  0  0  0  0
    3.9907   -3.4555    0.0000 C   0  0  0  0  0  0  0  0  0  0  0  0
    9.3116   -8.0578    0.0000 C   0  0  0  0  0  0  0  0  0  0  0  0
   11.2993   -4.6023    0.0000 O   0  0  0  0  0  0  0  0  0  0  0  0
    9.3116   -3.4555    0.0000 O   0  0  0  0  0  0  0  0  0  0  0  0
    3.3179   -4.6023    0.0000 C   0  0  0  0  0  0  0  0  0  0  0  0
    3.3179   -2.2935    0.0000 C   0  0  0  0  0  0  0  0  0  0  0  0
    9.9691   -2.2935    0.0000 C   0  0  0  0  0  0  0  0  0  0  0  0
    1.9877   -4.6023    0.0000 C   0  0  0  0  0  0  0  0  0  0  0  0
    1.9877   -2.2935    0.0000 C   0  0  0  0  0  0  0  0  0  0  0  0
   11.2993   -2.2935    0.0000 C   0  0  0  0  0  0  0  0  0  0  0  0
    1.3302   -5.7490    0.0000 C   0  0  0  0  0  0  0  0  0  0  0  0
   11.9721   -1.1467    0.0000 C   0  0  0  0  0  0  0  0  0  0  0  0
   11.9721   -3.4555    0.0000 C   0  0  0  0  0  0  0  0  0  0  0  0
    0.0000   -5.7490    0.0000 C   0  0  0  0  0  0  0  0  0  0  0  0
   13.3023   -1.1467    0.0000 C   0  0  0  0  0  0  0  0  0  0  0  0
   13.3023   -3.4555    0.0000 C   0  0  0  0  0  0  0  0  0  0  0  0
   13.9598   -0.0000    0.0000 C   0  0  0  0  0  0  0  0  0  0  0  0
   15.2900   -0.0000    0.0000 C   0  0  0  0  0  0  0  0  0  0  0  0
  1  2  2  0  0  0  0 
  2  3  1  0  0  0  0 
  2  4  1  0  0  0  0 
  3  5  2  0  0  0  0 
  3  6  1  0  0  0  0 
  4  7  1  0  0  0  0 
  5  8  1  0  0  0  0 
  5  9  1  0  0  0  0 
 10  6  2  0  0  0  0 
  7 11  1  0  0  0  0 
  8 12  2  0  0  0  0 
  9 13  2  0  0  0  0 
  9 14  1  0  0  0  0 
 12 10  1  0  0  0  0 
 11 15  1  0  0  0  0 
 11 16  1  0  0  0  0 
 14 17  1  0  0  0  0 
 15 18  1  0  0  0  0 
 16 19  1  0  0  0  0 
 17 20  1  0  0  0  0 
 18 21  1  0  0  0  0 
 20 22  1  0  0  0  0 
 20 23  1  0  0  0  0 
 21 24  1  0  0  0  0 
 22 25  1  0  0  0  0 
 23 26  1  0  0  0  0 
 25 27  1  0  0  0  0 
 27 28  1  0  0  0  0 
M  END
> <Name>
BIS(2-ETHYLHEXYL)PHTHALATE

> <Source>
DSSTox2DMolFile

> <Tox>
-6.848

> <CAS>
117-81-7

$$$$

  CDK

 28 28  0  0  0  0  0  0  0  0999 V2000
    2.2899   -2.0002    0.0000 C   0  0  0  0  0  0  0  0  0  0  0  0
    2.2899   -3.3245    0.0000 C   0  0  0  0  0  0  0  0  0  0  0  0
    3.4349   -1.3243    0.0000 C   0  0  0  0  0  0  0  0  0  0  0  0
    1.1312   -1.3243    0.0000 C   0  0  0  0  0  0  0  0  0  0  0  0
    3.4349   -3.9867    0.0000 C   0  0  0  0  0  0  0  0  0  0  0  0
    1.1312   -3.9867    0.0000 C   0  0  0  0  0  0  0  0  0  0  0  0
    3.4349   -0.0000    0.0000 O   0  0  0  0  0  0  0  0  0  0  0  0
    4.5936   -2.0002    0.0000 O   0  0  0  0  0  0  0  0  0  0  0  0
    0.0000   -2.0002    0.0000 C   0  0  0  0  0  0  0  0  0  0  0  0
    4.5936   -3.3245    0.0000 O   0  0  0  0  0  0  0  0  0  0  0  0
    3.4349   -5.3110    0.0000 O   0  0  0  0  0  0  0  0  0  0  0  0
    0.0000   -3.3245    0.0000 C   0  0  0  0  0  0  0  0  0  0  0  0
    5.7386   -1.3243    0.0000 C   0  0  0  0  0  0  0  0  0  0  0  0
    4.5936   -5.9869    0.0000 C   0  0  0  0  0  0  0  0  0  0  0  0
    6.8974   -2.0002    0.0000 C   0  0  0  0  0  0  0  0  0  0  0  0
    4.5936   -7.3112    0.0000 C   0  0  0  0  0  0  0  0  0  0  0  0
    8.0561   -1.3243    0.0000 C   0  0  0  0  0  0  0  0  0  0  0  0
    5.7386   -7.9734    0.0000 C   0  0  0  0  0  0  0  0  0  0  0  0
    9.2011   -2.0002    0.0000 C   0  0  0  0  0  0  0  0  0  0  0  0
    5.7386   -9.2976    0.0000 C   0  0  0  0  0  0  0  0  0  0  0  0
   10.3598   -1.3243    0.0000 C   0  0  0  0  0  0  0  0  0  0  0  0
    6.8974   -9.9736    0.0000 C   0  0  0  0  0  0  0  0  0  0  0  0
   11.4910   -2.0002    0.0000 C   0  0  0  0  0  0  0  0  0  0  0  0
    6.8974  -11.2979    0.0000 C   0  0  0  0  0  0  0  0  0  0  0  0
   12.6360   -1.3243    0.0000 C   0  0  0  0  0  0  0  0  0  0  0  0
    8.0561  -11.9600    0.0000 C   0  0  0  0  0  0  0  0  0  0  0  0
   13.7947   -2.0002    0.0000 C   0  0  0  0  0  0  0  0  0  0  0  0
    8.0561  -13.2843    0.0000 C   0  0  0  0  0  0  0  0  0  0  0  0
  1  2  2  0  0  0  0 
  1  3  1  0  0  0  0 
  1  4  1  0  0  0  0 
  2  5  1  0  0  0  0 
  2  6  1  0  0  0  0 
  3  7  2  0  0  0  0 
  3  8  1  0  0  0  0 
  4  9  2  0  0  0  0 
  5 10  2  0  0  0  0 
  5 11  1  0  0  0  0 
  6 12  2  0  0  0  0 
  8 13  1  0  0  0  0 
  9 12  1  0  0  0  0 
 11 14  1  0  0  0  0 
 13 15  1  0  0  0  0 
 14 16  1  0  0  0  0 
 15 17  1  0  0  0  0 
 16 18  1  0  0  0  0 
 17 19  1  0  0  0  0 
 18 20  1  0  0  0  0 
 19 21  1  0  0  0  0 
 20 22  1  0  0  0  0 
 21 23  1  0  0  0  0 
 22 24  1  0  0  0  0 
 23 25  1  0  0  0  0 
 24 26  1  0  0  0  0 
 25 27  1  0  0  0  0 
 26 28  1  0  0  0  0 
M  END
> <Name>
DIOCTYL PHTHALATE

> <Source>
DSSTox2DMolFile

> <Tox>
-7.000

> <CAS>
117-84-0

$$$$

  CDK

 12 12  0  0  0  0  0  0  0  0999 V2000
    0.0000   -2.3036    0.0000 Cl  0  0  0  0  0  0  0  0  0  0  0  0
    1.3300   -2.3036    0.0000 C   0  0  0  0  0  0  0  0  0  0  0  0
    1.9950   -1.1491    0.0000 C   0  0  0  0  0  0  0  0  0  0  0  0
    1.9950   -3.4581    0.0000 C   0  0  0  0  0  0  0  0  0  0  0  0
    3.3250   -1.1491    0.0000 C   0  0  0  0  0  0  0  0  0  0  0  0
    1.3300   -0.0000    0.0000 Cl  0  0  0  0  0  0  0  0  0  0  0  0
    3.3250   -3.4581    0.0000 C   0  0  0  0  0  0  0  0  0  0  0  0
    1.3300   -4.6072    0.0000 Cl  0  0  0  0  0  0  0  0  0  0  0  0
    3.9901   -2.3036    0.0000 C   0  0  0  0  0  0  0  0  0  0  0  0
    3.9901   -0.0000    0.0000 Cl  0  0  0  0  0  0  0  0  0  0  0  0
    3.9901   -4.6072    0.0000 Cl  0  0  0  0  0  0  0  0  0  0  0  0
    5.3201   -2.3036    0.0000 Cl  0  0  0  0  0  0  0  0  0  0  0  0
  1  2  1  0  0  0  0 
  2  3  2  0  0  0  0 
  2  4  1  0  0  0  0 
  3  5  1  0  0  0  0 
  3  6  1  0  0  0  0 
  7  4  2  0  0  0  0 
  4  8  1  0  0  0  0 
  5  9  2  0  0  0  0 
  5 10  1  0  0  0  0 
  9  7  1  0  0  0  0 
  7 11  1  0  0  0  0 
  9 12  1  0  0  0  0 
M  END
> <Name>
HEXACHLOROBENZENE

> <Source>
DSSTox2DMolFile

> <Tox>
-4.745

> <CAS>
118-74-1

$$$$

  CDK

 10 10  0  0  0  0  0  0  0  0999 V2000
    3.9896   -2.3044    0.0000 C   0  0  0  0  0  0  0  0  0  0  0  0
    4.6553   -3.4542    0.0000 O   0  0  0  0  0  0  0  0  0  0  0  0
    4.6553   -1.1499    0.0000 O   0  0  0  0  0  0  0  0  0  0  0  0
    2.6582   -2.3044    0.0000 C   0  0  0  0  0  0  0  0  0  0  0  0
    1.9971   -3.4542    0.0000 C   0  0  0  0  0  0  0  0  0  0  0  0
    1.9971   -1.1499    0.0000 C   0  0  0  0  0  0  0  0  0  0  0  0
    0.6657   -3.4542    0.0000 C   0  0  0  0  0  0  0  0  0  0  0  0
    0.6657   -1.1499    0.0000 C   0  0  0  0  0  0  0  0  0  0  0  0
    2.6582   -0.0000    0.0000 Cl  0  0  0  0  0  0  0  0  0  0  0  0
    0.0000   -2.3044    0.0000 C   0  0  0  0  0  0  0  0  0  0  0  0
  1  2  2  0  0  0  0 
  1  3  1  0  0  0  0 
  1  4  1  0  0  0  0 
  4  5  2  0  0  0  0 
  4  6  1  0  0  0  0 
  5  7  1  0  0  0  0 
  8  6  2  0  0  0  0 
  6  9  1  0  0  0  0 
  7 10  2  0  0  0  0 
 10  8  1  0  0  0  0 
M  END
> <Name>
2-CHLOROBENZOIC ACID

> <Source>
DSSTox2DMolFile

> <Tox>
-3.180

> <CAS>
118-91-2

$$$$

  CDK

 20 21  0  0  0  0  0  0  0  0999 V2000
    6.9131   -0.6633    0.0000 N   0  0  0  0  0  0  0  0  0  0  0  0
    8.0635   -0.0000    0.0000 O   0  0  0  0  0  0  0  0  0  0  0  0
    5.7626   -0.0000    0.0000 O   0  0  0  0  0  0  0  0  0  0  0  0
    6.9131   -1.9900    0.0000 C   0  0  0  0  0  0  0  0  0  0  0  0
    8.0635   -2.6533    0.0000 C   0  0  0  0  0  0  0  0  0  0  0  0
    5.7626   -2.6533    0.0000 C   0  0  0  0  0  0  0  0  0  0  0  0
    8.0635   -3.9903    0.0000 C   0  0  0  0  0  0  0  0  0  0  0  0
    5.7626   -3.9903    0.0000 C   0  0  0  0  0  0  0  0  0  0  0  0
    4.6018   -1.9900    0.0000 N   0  0  0  0  0  0  0  0  0  0  0  0
    6.9131   -4.6536    0.0000 C   0  0  0  0  0  0  0  0  0  0  0  0
    9.2140   -4.6536    0.0000 N   0  0  0  0  0  0  0  0  0  0  0  0
    3.4513   -2.6533    0.0000 C   0  0  0  0  0  0  0  0  0  0  0  0
    9.2140   -5.9803    0.0000 O   0  0  0  0  0  0  0  0  0  0  0  0
   10.3644   -3.9903    0.0000 O   0  0  0  0  0  0  0  0  0  0  0  0
    3.4513   -3.9903    0.0000 C   0  0  0  0  0  0  0  0  0  0  0  0
    2.3009   -1.9900    0.0000 C   0  0  0  0  0  0  0  0  0  0  0  0
    2.3009   -4.6536    0.0000 C   0  0  0  0  0  0  0  0  0  0  0  0
    1.1504   -2.6533    0.0000 C   0  0  0  0  0  0  0  0  0  0  0  0
    1.1504   -3.9903    0.0000 C   0  0  0  0  0  0  0  0  0  0  0  0
    0.0000   -4.6536    0.0000 O   0  0  0  0  0  0  0  0  0  0  0  0
  1  2  2  0  0  0  0 
  1  3  1  0  0  0  0 
  1  4  1  0  0  0  0 
  4  5  2  0  0  0  0 
  4  6  1  0  0  0  0 
  5  7  1  0  0  0  0 
  8  6  2  0  0  0  0 
  6  9  1  0  0  0  0 
  7 10  2  0  0  0  0 
  7 11  1  0  0  0  0 
 10  8  1  0  0  0  0 
  9 12  1  0  0  0  0 
 11 13  2  0  0  0  0 
 11 14  1  0  0  0  0 
 12 15  2  0  0  0  0 
 12 16  1  0  0  0  0 
 15 17  1  0  0  0  0 
 18 16  2  0  0  0  0 
 17 19  2  0  0  0  0 
 19 18  1  0  0  0  0 
 19 20  1  0  0  0  0 
M  CHG  1   1   1
M  CHG  1   3  -1
M  CHG  1  11   1
M  CHG  1  14  -1
M  END
> <Name>
P-(2,4-DINITROANILINE)PHENOL

> <Source>
DSSTox2DMolFile

> <Tox>
-11.398

> <CAS>
119-15-3

$$$$

  CDK

 11 11  0  0  0  0  0  0  0  0999 V2000
    0.0000   -1.1543    0.0000 O   0  0  0  0  0  0  0  0  0  0  0  0
    0.6656   -2.3039    0.0000 C   0  0  0  0  0  0  0  0  0  0  0  0
    0.0000   -3.4582    0.0000 O   0  0  0  0  0  0  0  0  0  0  0  0
    1.9968   -2.3039    0.0000 C   0  0  0  0  0  0  0  0  0  0  0  0
    0.6656   -4.6079    0.0000 C   0  0  0  0  0  0  0  0  0  0  0  0
    2.6577   -1.1543    0.0000 C   0  0  0  0  0  0  0  0  0  0  0  0
    2.6577   -3.4582    0.0000 C   0  0  0  0  0  0  0  0  0  0  0  0
    1.9968   -0.0000    0.0000 O   0  0  0  0  0  0  0  0  0  0  0  0
    3.9889   -1.1543    0.0000 C   0  0  0  0  0  0  0  0  0  0  0  0
    3.9889   -3.4582    0.0000 C   0  0  0  0  0  0  0  0  0  0  0  0
    4.6544   -2.3039    0.0000 C   0  0  0  0  0  0  0  0  0  0  0  0
  1  2  2  0  0  0  0 
  2  3  1  0  0  0  0 
  2  4  1  0  0  0  0 
  3  5  1  0  0  0  0 
  4  6  2  0  0  0  0 
  4  7  1  0  0  0  0 
  6  8  1  0  0  0  0 
  6  9  1  0  0  0  0 
 10  7  2  0  0  0  0 
  9 11  2  0  0  0  0 
 11 10  1  0  0  0  0 
M  END
> <Name>
METHYL SALICYLATE

> <Source>
DSSTox2DMolFile

> <Tox>
-1.465

> <CAS>
119-36-8

$$$$

  CDK

 16 17  0  0  0  0  0  0  0  0999 V2000
    5.7559   -5.3191    0.0000 C   0  0  0  0  0  0  0  0  0  0  0  0
    4.6071   -5.9833    0.0000 C   0  0  0  0  0  0  0  0  0  0  0  0
    5.7559   -3.9908    0.0000 C   0  0  0  0  0  0  0  0  0  0  0  0
    3.4523   -5.3191    0.0000 C   0  0  0  0  0  0  0  0  0  0  0  0
    4.6071   -3.3267    0.0000 C   0  0  0  0  0  0  0  0  0  0  0  0
    3.4523   -3.9908    0.0000 C   0  0  0  0  0  0  0  0  0  0  0  0
    4.6071   -1.9924    0.0000 C   0  0  0  0  0  0  0  0  0  0  0  0
    3.4523   -1.3283    0.0000 C   0  0  0  0  0  0  0  0  0  0  0  0
    5.7559   -1.3283    0.0000 O   0  0  0  0  0  0  0  0  0  0  0  0
    2.3036   -1.9924    0.0000 C   0  0  0  0  0  0  0  0  0  0  0  0
    3.4523   -0.0000    0.0000 O   0  0  0  0  0  0  0  0  0  0  0  0
    2.3036   -3.3267    0.0000 C   0  0  0  0  0  0  0  0  0  0  0  0
    1.1488   -1.3283    0.0000 C   0  0  0  0  0  0  0  0  0  0  0  0
    1.1488   -3.9908    0.0000 C   0  0  0  0  0  0  0  0  0  0  0  0
    0.0000   -1.9924    0.0000 C   0  0  0  0  0  0  0  0  0  0  0  0
    0.0000   -3.3267    0.0000 C   0  0  0  0  0  0  0  0  0  0  0  0
  1  2  2  0  0  0  0 
  1  3  1  0  0  0  0 
  2  4  1  0  0  0  0 
  5  3  2  0  0  0  0 
  4  6  2  0  0  0  0 
  6  5  1  0  0  0  0 
  5  7  1  0  0  0  0 
  7  8  1  0  0  0  0 
  7  9  1  0  0  0  0 
  8 10  1  0  0  0  0 
  8 11  2  0  0  0  0 
 10 12  2  0  0  0  0 
 10 13  1  0  0  0  0 
 12 14  1  0  0  0  0 
 15 13  2  0  0  0  0 
 14 16  2  0  0  0  0 
 16 15  1  0  0  0  0 
M  END
> <Name>
BENZOIN

> <Source>
DSSTox2DMolFile

> <Tox>
-5.658

> <CAS>
119-53-9

$$$$

  CDK

 14 15  0  0  0  0  0  0  0  0999 V2000
    5.7567   -1.3269    0.0000 C   0  0  0  0  0  0  0  0  0  0  0  0
    6.9108   -1.9903    0.0000 C   0  0  0  0  0  0  0  0  0  0  0  0
    4.6095   -1.9903    0.0000 C   0  0  0  0  0  0  0  0  0  0  0  0
    6.9108   -3.3241    0.0000 C   0  0  0  0  0  0  0  0  0  0  0  0
    4.6095   -3.3241    0.0000 C   0  0  0  0  0  0  0  0  0  0  0  0
    3.4554   -1.3269    0.0000 C   0  0  0  0  0  0  0  0  0  0  0  0
    5.7567   -3.9875    0.0000 C   0  0  0  0  0  0  0  0  0  0  0  0
    3.4554   -0.0000    0.0000 O   0  0  0  0  0  0  0  0  0  0  0  0
    2.3013   -1.9903    0.0000 C   0  0  0  0  0  0  0  0  0  0  0  0
    2.3013   -3.3241    0.0000 C   0  0  0  0  0  0  0  0  0  0  0  0
    1.1541   -1.3269    0.0000 C   0  0  0  0  0  0  0  0  0  0  0  0
    1.1541   -3.9875    0.0000 C   0  0  0  0  0  0  0  0  0  0  0  0
    0.0000   -1.9903    0.0000 C   0  0  0  0  0  0  0  0  0  0  0  0
    0.0000   -3.3241    0.0000 C   0  0  0  0  0  0  0  0  0  0  0  0
  1  2  2  0  0  0  0 
  1  3  1  0  0  0  0 
  2  4  1  0  0  0  0 
  5  3  2  0  0  0  0 
  3  6  1  0  0  0  0 
  4  7  2  0  0  0  0 
  7  5  1  0  0  0  0 
  6  8  2  0  0  0  0 
  6  9  1  0  0  0  0 
  9 10  2  0  0  0  0 
  9 11  1  0  0  0  0 
 10 12  1  0  0  0  0 
 13 11  2  0  0  0  0 
 12 14  2  0  0  0  0 
 14 13  1  0  0  0  0 
M  END
> <Name>
BENZOPHENONE

> <Source>
DSSTox2DMolFile

> <Tox>
-2.714

> <CAS>
119-61-9

$$$$

  CDK

 10 11  0  0  0  0  0  0  0  0999 V2000
    2.3039   -0.6635    0.0000 C   0  0  0  0  0  0  0  0  0  0  0  0
    3.4558   -0.0000    0.0000 C   0  0  0  0  0  0  0  0  0  0  0  0
    2.3039   -1.9952    0.0000 C   0  0  0  0  0  0  0  0  0  0  0  0
    1.1519   -0.0000    0.0000 C   0  0  0  0  0  0  0  0  0  0  0  0
    4.6078   -0.6635    0.0000 C   0  0  0  0  0  0  0  0  0  0  0  0
    3.4558   -2.6587    0.0000 C   0  0  0  0  0  0  0  0  0  0  0  0
    1.1519   -2.6587    0.0000 C   0  0  0  0  0  0  0  0  0  0  0  0
    0.0000   -0.6635    0.0000 C   0  0  0  0  0  0  0  0  0  0  0  0
    4.6078   -1.9952    0.0000 C   0  0  0  0  0  0  0  0  0  0  0  0
    0.0000   -1.9952    0.0000 C   0  0  0  0  0  0  0  0  0  0  0  0
  1  2  1  0  0  0  0 
  1  3  2  0  0  0  0 
  1  4  1  0  0  0  0 
  2  5  1  0  0  0  0 
  6  3  1  0  0  0  0 
  3  7  1  0  0  0  0 
  8  4  2  0  0  0  0 
  5  9  1  0  0  0  0 
  9  6  1  0  0  0  0 
  7 10  2  0  0  0  0 
 10  8  1  0  0  0  0 
M  END
> <Name>
TETRALIN

> <Source>
DSSTox2DMolFile

> <Tox>
-0.434

> <CAS>
119-64-2

$$$$

  CDK

 10 11  0  0  0  0  0  0  0  0999 V2000
   -1.2496    1.3663    0.0000 C   0  0  0  0  0  0  0  0  0  0  0  0
   -2.3951    0.7017    0.0000 N   0  0  0  0  0  0  0  0  0  0  0  0
    0.0109    0.6940    0.0000 C   0  0  0  0  0  0  0  0  0  0  0  0
   -2.3928   -0.6819    0.0000 C   0  0  0  0  0  0  0  0  0  0  0  0
    0.0184   -0.7152    0.0000 C   0  0  0  0  0  0  0  0  0  0  0  0
    1.2384    1.4025    0.0000 C   0  0  0  0  0  0  0  0  0  0  0  0
   -1.2279   -1.4027    0.0000 C   0  0  0  0  0  0  0  0  0  0  0  0
    1.2594   -1.4032    0.0000 C   0  0  0  0  0  0  0  0  0  0  0  0
    2.4241    0.7159    0.0000 C   0  0  0  0  0  0  0  0  0  0  0  0
    2.4339   -0.6978    0.0000 C   0  0  0  0  0  0  0  0  0  0  0  0
  1  2  2  0  0  0  0 
  1  3  1  0  0  0  0 
  2  4  1  0  0  0  0 
  5  3  1  0  0  0  0 
  6  3  2  0  0  0  0 
  4  7  2  0  0  0  0 
  7  5  1  0  0  0  0 
  5  8  2  0  0  0  0 
  9  6  1  0  0  0  0 
  8 10  1  0  0  0  0 
 10  9  2  0  0  0  0 
M  END
> <Name>
ISOQUINOLINE

> <Source>
DougDB3DMolFile

> <Tox>
-1.155

> <CAS>
119-65-3

$$$$

  CDK

 16 17  0  0  0  0  0  0  0  0999 V2000
    0.0000   -3.4548    0.0000 O   0  0  0  0  0  0  0  0  0  0  0  0
    1.3325   -3.4548    0.0000 N   0  0  0  0  0  0  0  0  0  0  0  0
    1.9947   -4.6038    0.0000 O   0  0  0  0  0  0  0  0  0  0  0  0
    1.9947   -2.2979    0.0000 C   0  0  0  0  0  0  0  0  0  0  0  0
    1.3325   -1.1489    0.0000 C   0  0  0  0  0  0  0  0  0  0  0  0
    3.3272   -2.2979    0.0000 C   0  0  0  0  0  0  0  0  0  0  0  0
    1.9947   -0.0000    0.0000 C   0  0  0  0  0  0  0  0  0  0  0  0
    3.9894   -1.1489    0.0000 C   0  0  0  0  0  0  0  0  0  0  0  0
    3.9894   -3.4548    0.0000 N   0  0  0  0  0  0  0  0  0  0  0  0
    3.3272   -0.0000    0.0000 C   0  0  0  0  0  0  0  0  0  0  0  0
    5.3219   -3.4548    0.0000 C   0  0  0  0  0  0  0  0  0  0  0  0
    5.9841   -2.2979    0.0000 C   0  0  0  0  0  0  0  0  0  0  0  0
    5.9841   -4.6038    0.0000 C   0  0  0  0  0  0  0  0  0  0  0  0
    7.3166   -2.2979    0.0000 C   0  0  0  0  0  0  0  0  0  0  0  0
    7.3166   -4.6038    0.0000 C   0  0  0  0  0  0  0  0  0  0  0  0
    7.9788   -3.4548    0.0000 C   0  0  0  0  0  0  0  0  0  0  0  0
  1  2  2  0  0  0  0 
  2  3  1  0  0  0  0 
  2  4  1  0  0  0  0 
  4  5  2  0  0  0  0 
  4  6  1  0  0  0  0 
  5  7  1  0  0  0  0 
  8  6  2  0  0  0  0 
  6  9  1  0  0  0  0 
  7 10  2  0  0  0  0 
 10  8  1  0  0  0  0 
  9 11  1  0  0  0  0 
 11 12  2  0  0  0  0 
 11 13  1  0  0  0  0 
 12 14  1  0  0  0  0 
 15 13  2  0  0  0  0 
 14 16  2  0  0  0  0 
 16 15  1  0  0  0  0 
M  CHG  1   2   1
M  CHG  1   3  -1
M  END
> <Name>
2-NITRO-N-PHENYLBENZENAMINE

> <Source>
DSSTox2DMolFile

> <Tox>
-5.000

> <CAS>
119-75-5

$$$$

  CDK

 14 16  0  0  0  0  0  0  0  0999 V2000
    3.4511   -2.6642    0.0000 C   0  0  0  0  0  0  0  0  0  0  0  0
    2.2984   -2.0085    0.0000 C   0  0  0  0  0  0  0  0  0  0  0  0
    4.6037   -2.0085    0.0000 C   0  0  0  0  0  0  0  0  0  0  0  0
    2.2984   -0.6764    0.0000 C   0  0  0  0  0  0  0  0  0  0  0  0
    1.1527   -2.6642    0.0000 C   0  0  0  0  0  0  0  0  0  0  0  0
    4.6037   -0.6764    0.0000 C   0  0  0  0  0  0  0  0  0  0  0  0
    5.7495   -2.6642    0.0000 C   0  0  0  0  0  0  0  0  0  0  0  0
    3.4511   -0.0000    0.0000 C   0  0  0  0  0  0  0  0  0  0  0  0
    1.1527   -0.0000    0.0000 C   0  0  0  0  0  0  0  0  0  0  0  0
    0.0000   -2.0085    0.0000 C   0  0  0  0  0  0  0  0  0  0  0  0
    5.7495   -0.0000    0.0000 C   0  0  0  0  0  0  0  0  0  0  0  0
    6.9021   -2.0085    0.0000 C   0  0  0  0  0  0  0  0  0  0  0  0
    0.0000   -0.6764    0.0000 C   0  0  0  0  0  0  0  0  0  0  0  0
    6.9021   -0.6764    0.0000 C   0  0  0  0  0  0  0  0  0  0  0  0
  1  2  1  0  0  0  0 
  1  3  2  0  0  0  0 
  2  4  2  0  0  0  0 
  2  5  1  0  0  0  0 
  3  6  1  0  0  0  0 
  3  7  1  0  0  0  0 
  8  4  1  0  0  0  0 
  4  9  1  0  0  0  0 
  5 10  2  0  0  0  0 
  8  6  2  0  0  0  0 
  6 11  1  0  0  0  0 
  7 12  2  0  0  0  0 
  9 13  2  0  0  0  0 
 10 13  1  0  0  0  0 
 11 14  2  0  0  0  0 
 12 14  1  0  0  0  0 
M  END
> <Name>
ANTHRACENE

> <Source>
DSSTox2DMolFile

> <Tox>
-5.185

> <CAS>
120-12-7

$$$$

  CDK

 15 16  0  0  0  0  0  0  0  0999 V2000
    0.0000   -3.9892    0.0000 O   0  0  0  0  0  0  0  0  0  0  0  0
    1.1502   -4.6541    0.0000 C   0  0  0  0  0  0  0  0  0  0  0  0
    2.3004   -3.9892    0.0000 C   0  0  0  0  0  0  0  0  0  0  0  0
    1.1502   -5.9838    0.0000 C   0  0  0  0  0  0  0  0  0  0  0  0
    3.4573   -4.6541    0.0000 C   0  0  0  0  0  0  0  0  0  0  0  0
    2.3004   -2.6595    0.0000 C   0  0  0  0  0  0  0  0  0  0  0  0
    2.3004   -6.6487    0.0000 C   0  0  0  0  0  0  0  0  0  0  0  0
    3.4573   -5.9838    0.0000 C   0  0  0  0  0  0  0  0  0  0  0  0
    3.4573   -1.9946    0.0000 C   0  0  0  0  0  0  0  0  0  0  0  0
    4.6075   -6.6487    0.0000 Cl  0  0  0  0  0  0  0  0  0  0  0  0
    3.4573   -0.6649    0.0000 C   0  0  0  0  0  0  0  0  0  0  0  0
    4.6075   -2.6595    0.0000 C   0  0  0  0  0  0  0  0  0  0  0  0
    4.6075   -0.0000    0.0000 C   0  0  0  0  0  0  0  0  0  0  0  0
    5.7577   -1.9946    0.0000 C   0  0  0  0  0  0  0  0  0  0  0  0
    5.7577   -0.6649    0.0000 C   0  0  0  0  0  0  0  0  0  0  0  0
  1  2  1  0  0  0  0 
  2  3  2  0  0  0  0 
  2  4  1  0  0  0  0 
  3  5  1  0  0  0  0 
  3  6  1  0  0  0  0 
  7  4  2  0  0  0  0 
  5  8  2  0  0  0  0 
  6  9  1  0  0  0  0 
  8  7  1  0  0  0  0 
  8 10  1  0  0  0  0 
  9 11  2  0  0  0  0 
  9 12  1  0  0  0  0 
 11 13  1  0  0  0  0 
 14 12  2  0  0  0  0 
 13 15  2  0  0  0  0 
 15 14  1  0  0  0  0 
M  END
> <Name>
5-CHLORO-2-HYDROXYDIPHENYLMETHANE

> <Source>
DSSTox2DMolFile

> <Tox>
-5.854

> <CAS>
120-32-1

$$$$

  CDK

 16 17  0  0  0  0  0  0  0  0999 V2000
    3.4656   -1.3273    0.0000 C   0  0  0  0  0  0  0  0  0  0  0  0
    3.4656   -0.0000    0.0000 O   0  0  0  0  0  0  0  0  0  0  0  0
    2.3043   -1.9909    0.0000 C   0  0  0  0  0  0  0  0  0  0  0  0
    4.6178   -1.9909    0.0000 O   0  0  0  0  0  0  0  0  0  0  0  0
    2.3043   -3.3182    0.0000 C   0  0  0  0  0  0  0  0  0  0  0  0
    1.1521   -1.3273    0.0000 C   0  0  0  0  0  0  0  0  0  0  0  0
    5.7515   -1.3273    0.0000 C   0  0  0  0  0  0  0  0  0  0  0  0
    1.1521   -3.9910    0.0000 C   0  0  0  0  0  0  0  0  0  0  0  0
    0.0000   -1.9909    0.0000 C   0  0  0  0  0  0  0  0  0  0  0  0
    6.9128   -1.9909    0.0000 C   0  0  0  0  0  0  0  0  0  0  0  0
    0.0000   -3.3182    0.0000 C   0  0  0  0  0  0  0  0  0  0  0  0
    8.0650   -1.3273    0.0000 C   0  0  0  0  0  0  0  0  0  0  0  0
    6.9128   -3.3182    0.0000 C   0  0  0  0  0  0  0  0  0  0  0  0
    9.2171   -1.9909    0.0000 C   0  0  0  0  0  0  0  0  0  0  0  0
    8.0650   -3.9910    0.0000 C   0  0  0  0  0  0  0  0  0  0  0  0
    9.2171   -3.3182    0.0000 C   0  0  0  0  0  0  0  0  0  0  0  0
  1  2  2  0  0  0  0 
  1  3  1  0  0  0  0 
  1  4  1  0  0  0  0 
  3  5  2  0  0  0  0 
  3  6  1  0  0  0  0 
  4  7  1  0  0  0  0 
  5  8  1  0  0  0  0 
  6  9  2  0  0  0  0 
  7 10  1  0  0  0  0 
  8 11  2  0  0  0  0 
  9 11  1  0  0  0  0 
 10 12  2  0  0  0  0 
 10 13  1  0  0  0  0 
 12 14  1  0  0  0  0 
 13 15  2  0  0  0  0 
 14 16  2  0  0  0  0 
 15 16  1  0  0  0  0 
M  END
> <Name>
BENZYL BENZOATE

> <Source>
DSSTox2DMolFile

> <Tox>
-3.650

> <CAS>
120-51-4

$$$$

  CDK

 11 12  0  0  0  0  0  0  0  0999 V2000
    1.1507   -2.6606    0.0000 C   0  0  0  0  0  0  0  0  0  0  0  0
    0.0000   -1.9954    0.0000 O   0  0  0  0  0  0  0  0  0  0  0  0
    2.3014   -1.9954    0.0000 C   0  0  0  0  0  0  0  0  0  0  0  0
    2.3014   -0.6651    0.0000 C   0  0  0  0  0  0  0  0  0  0  0  0
    3.4521   -2.6606    0.0000 C   0  0  0  0  0  0  0  0  0  0  0  0
    3.4521   -0.0000    0.0000 C   0  0  0  0  0  0  0  0  0  0  0  0
    4.6028   -1.9954    0.0000 C   0  0  0  0  0  0  0  0  0  0  0  0
    4.6028   -0.6651    0.0000 C   0  0  0  0  0  0  0  0  0  0  0  0
    5.8665   -2.4078    0.0000 O   0  0  0  0  0  0  0  0  0  0  0  0
    5.8665   -0.2528    0.0000 O   0  0  0  0  0  0  0  0  0  0  0  0
    6.6514   -1.3303    0.0000 C   0  0  0  0  0  0  0  0  0  0  0  0
  1  2  2  0  0  0  0 
  1  3  1  0  0  0  0 
  3  4  2  0  0  0  0 
  3  5  1  0  0  0  0 
  4  6  1  0  0  0  0 
  7  5  2  0  0  0  0 
  6  8  2  0  0  0  0 
  8  7  1  0  0  0  0 
  9  7  1  0  0  0  0 
  8 10  1  0  0  0  0 
 11  9  1  0  0  0  0 
 10 11  1  0  0  0  0 
M  END
> <Name>
PIPERONAL

> <Source>
DSSTox2DMolFile

> <Tox>
-2.000

> <CAS>
120-57-0

$$$$

  CDK

 14 14  0  0  0  0  0  0  0  0999 V2000
    6.6460   -3.4559    0.0000 O   0  0  0  0  0  0  0  0  0  0  0  0
    5.9814   -2.3062    0.0000 C   0  0  0  0  0  0  0  0  0  0  0  0
    4.6522   -2.3062    0.0000 C   0  0  0  0  0  0  0  0  0  0  0  0
    6.6460   -1.1498    0.0000 O   0  0  0  0  0  0  0  0  0  0  0  0
    3.9876   -3.4559    0.0000 C   0  0  0  0  0  0  0  0  0  0  0  0
    3.9876   -1.1498    0.0000 C   0  0  0  0  0  0  0  0  0  0  0  0
    5.9814   -0.0000    0.0000 C   0  0  0  0  0  0  0  0  0  0  0  0
    2.6584   -3.4559    0.0000 C   0  0  0  0  0  0  0  0  0  0  0  0
    2.6584   -1.1498    0.0000 C   0  0  0  0  0  0  0  0  0  0  0  0
    1.9938   -2.3062    0.0000 C   0  0  0  0  0  0  0  0  0  0  0  0
    0.6646   -2.3062    0.0000 C   0  0  0  0  0  0  0  0  0  0  0  0
    0.0000   -1.1498    0.0000 O   0  0  0  0  0  0  0  0  0  0  0  0
    0.0000   -3.4559    0.0000 O   0  0  0  0  0  0  0  0  0  0  0  0
    0.6646   -4.6057    0.0000 C   0  0  0  0  0  0  0  0  0  0  0  0
  1  2  2  0  0  0  0 
  2  3  1  0  0  0  0 
  2  4  1  0  0  0  0 
  3  5  2  0  0  0  0 
  3  6  1  0  0  0  0 
  4  7  1  0  0  0  0 
  5  8  1  0  0  0  0 
  9  6  2  0  0  0  0 
  8 10  2  0  0  0  0 
 10  9  1  0  0  0  0 
 10 11  1  0  0  0  0 
 11 12  2  0  0  0  0 
 11 13  1  0  0  0  0 
 13 14  1  0  0  0  0 
M  END
> <Name>
DIMETHYLTEREPHTHALATE

> <Source>
DSSTox2DMolFile

> <Tox>
-2.000

> <CAS>
120-61-6

$$$$

  CDK

 12 12  0  0  0  0  0  0  0  0999 V2000
   -4.0595   -0.8124   -0.3443 C   0  0  0  0  0  0  0  0  0  0  0  0
   -2.6035   -1.3031   -0.2978 C   0  0  0  0  0  0  0  0  0  0  0  0
   -4.5391   -0.3974    0.9038 O   0  0  0  0  0  0  0  0  0  0  0  0
   -1.7905   -0.1351   -0.2717 O   0  0  0  0  0  0  0  0  0  0  0  0
   -0.4319   -0.3168   -0.1633 C   0  0  0  0  0  0  0  0  0  0  0  0
    0.3068    0.8787   -0.0708 C   0  0  0  0  0  0  0  0  0  0  0  0
    0.2297   -1.5505   -0.1507 C   0  0  0  0  0  0  0  0  0  0  0  0
    1.6923    0.8347    0.0333 C   0  0  0  0  0  0  0  0  0  0  0  0
   -0.4626    2.3760   -0.0849 Cl  0  0  0  0  0  0  0  0  0  0  0  0
    1.6151   -1.5860   -0.0452 C   0  0  0  0  0  0  0  0  0  0  0  0
    2.3372   -0.3996    0.0458 C   0  0  0  0  0  0  0  0  0  0  0  0
    4.0169   -0.4548    0.1730 Cl  0  0  0  0  0  0  0  0  0  0  0  0
  1  2  1  0  0  0  0 
  1  3  1  0  0  0  0 
  2  4  1  0  0  0  0 
  4  5  1  0  0  0  0 
  5  6  1  0  0  0  0 
  5  7  2  0  0  0  0 
  6  8  2  0  0  0  0 
  6  9  1  0  0  0  0 
 10  7  1  0  0  0  0 
  8 11  1  0  0  0  0 
 11 10  2  0  0  0  0 
 11 12  1  0  0  0  0 
M  END
> <Name>
2-(2,4-DICHLOROPHENOXY)ETHANOL

> <Source>
DougDB3DMolFile

> <Tox>
-3.701

> <CAS>
120-67-2

$$$$

  CDK

  9 10  0  0  0  0  0  0  0  0999 V2000
    3.5678   -0.2561    0.0000 N   0  0  0  0  0  0  0  0  0  0  0  0
    4.3404   -1.3195    0.0000 C   0  0  0  0  0  0  0  0  0  0  0  0
    2.3004   -0.6597    0.0000 C   0  0  0  0  0  0  0  0  0  0  0  0
    3.5678   -2.4132    0.0000 C   0  0  0  0  0  0  0  0  0  0  0  0
    2.3004   -2.0096    0.0000 C   0  0  0  0  0  0  0  0  0  0  0  0
    1.1589   -0.0000    0.0000 C   0  0  0  0  0  0  0  0  0  0  0  0
    1.1589   -2.6693    0.0000 C   0  0  0  0  0  0  0  0  0  0  0  0
    0.0000   -0.6771    0.0000 C   0  0  0  0  0  0  0  0  0  0  0  0
    0.0000   -1.9922    0.0000 C   0  0  0  0  0  0  0  0  0  0  0  0
  1  2  1  0  0  0  0 
  1  3  1  0  0  0  0 
  2  4  2  0  0  0  0 
  3  5  2  0  0  0  0 
  3  6  1  0  0  0  0 
  5  4  1  0  0  0  0 
  5  7  1  0  0  0  0 
  6  8  2  0  0  0  0 
  7  9  2  0  0  0  0 
  9  8  1  0  0  0  0 
M  END
> <Name>
INDOLE

> <Source>
DSSTox2DMolFile

> <Tox>
-1.914

> <CAS>
120-72-9

$$$$

  CDK

 10 11  0  0  0  0  0  0  0  0999 V2000
    0.0000    0.8660    0.0000 C   0  0  0  0  0  0  0  0  0  0  0  0
    1.0188    0.9678    0.0000 C   0  0  0  0  0  0  0  0  0  0  0  0
    1.5282    1.6810    0.0000 N   0  0  0  0  0  0  0  0  0  0  0  0
    1.6300    0.1528    0.0000 S   0  0  0  0  0  0  0  0  0  0  0  0
    2.6488    1.4263    0.0000 C   0  0  0  0  0  0  0  0  0  0  0  0
    2.6488    0.5094    0.0000 C   0  0  0  0  0  0  0  0  0  0  0  0
    3.5147    1.9357    0.0000 C   0  0  0  0  0  0  0  0  0  0  0  0
    3.5147    0.0000    0.0000 C   0  0  0  0  0  0  0  0  0  0  0  0
    4.3807    1.4263    0.0000 C   0  0  0  0  0  0  0  0  0  0  0  0
    4.3807    0.5094    0.0000 C   0  0  0  0  0  0  0  0  0  0  0  0
  1  2  1  0  0  0  0 
  2  3  2  0  0  0  0 
  4  2  1  0  0  0  0 
  3  5  1  0  0  0  0 
  6  4  1  0  0  0  0 
  5  7  2  0  0  0  0 
  5  6  1  0  0  0  0 
  8  6  2  0  0  0  0 
  7  9  1  0  0  0  0 
 10  8  1  0  0  0  0 
  9 10  2  0  0  0  0 
M  END
> <Name>
2-METHYLBENZOTHIAZOLE

> <Source>
NIST2DMolFile

> <Tox>
-1.524

> <CAS>
120-75-2

$$$$

  CDK

  8  8  0  0  0  0  0  0  0  0999 V2000
    0.0000   -2.3027    0.0000 O   0  0  0  0  0  0  0  0  0  0  0  0
    1.3289   -2.3027    0.0000 C   0  0  0  0  0  0  0  0  0  0  0  0
    1.9954   -1.1533    0.0000 C   0  0  0  0  0  0  0  0  0  0  0  0
    1.9954   -3.4560    0.0000 C   0  0  0  0  0  0  0  0  0  0  0  0
    3.3243   -1.1533    0.0000 C   0  0  0  0  0  0  0  0  0  0  0  0
    1.3289   -0.0000    0.0000 O   0  0  0  0  0  0  0  0  0  0  0  0
    3.3243   -3.4560    0.0000 C   0  0  0  0  0  0  0  0  0  0  0  0
    3.9907   -2.3027    0.0000 C   0  0  0  0  0  0  0  0  0  0  0  0
  1  2  1  0  0  0  0 
  2  3  2  0  0  0  0 
  2  4  1  0  0  0  0 
  3  5  1  0  0  0  0 
  3  6  1  0  0  0  0 
  7  4  2  0  0  0  0 
  5  8  2  0  0  0  0 
  8  7  1  0  0  0  0 
M  END
> <Name>
CATECHOL

> <Source>
DSSTox2DMolFile

> <Tox>
-2.437

> <CAS>
120-80-9

$$$$

  CDK

  9  9  0  0  0  0  0  0  0  0999 V2000
    4.6082   -0.0000    0.0000 Cl  0  0  0  0  0  0  0  0  0  0  0  0
    3.4561   -0.6636    0.0000 C   0  0  0  0  0  0  0  0  0  0  0  0
    3.4561   -1.9953    0.0000 C   0  0  0  0  0  0  0  0  0  0  0  0
    2.3041   -0.0000    0.0000 C   0  0  0  0  0  0  0  0  0  0  0  0
    4.6082   -2.6589    0.0000 Cl  0  0  0  0  0  0  0  0  0  0  0  0
    2.3041   -2.6589    0.0000 C   0  0  0  0  0  0  0  0  0  0  0  0
    1.1520   -0.6636    0.0000 C   0  0  0  0  0  0  0  0  0  0  0  0
    1.1520   -1.9953    0.0000 C   0  0  0  0  0  0  0  0  0  0  0  0
    0.0000   -2.6589    0.0000 Cl  0  0  0  0  0  0  0  0  0  0  0  0
  1  2  1  0  0  0  0 
  2  3  2  0  0  0  0 
  2  4  1  0  0  0  0 
  3  5  1  0  0  0  0 
  3  6  1  0  0  0  0 
  7  4  2  0  0  0  0 
  6  8  2  0  0  0  0 
  8  7  1  0  0  0  0 
  8  9  1  0  0  0  0 
M  END
> <Name>
1,2,4-TRICHLOROBENZENE

> <Source>
DSSTox2DMolFile

> <Tox>
-0.337

> <CAS>
120-82-1

$$$$

  CDK

  9  9  0  0  0  0  0  0  0  0999 V2000
    0.0000   -2.6589    0.0000 Cl  0  0  0  0  0  0  0  0  0  0  0  0
    1.1520   -1.9953    0.0000 C   0  0  0  0  0  0  0  0  0  0  0  0
    1.1520   -0.6636    0.0000 C   0  0  0  0  0  0  0  0  0  0  0  0
    2.3041   -2.6589    0.0000 C   0  0  0  0  0  0  0  0  0  0  0  0
    2.3041   -0.0000    0.0000 C   0  0  0  0  0  0  0  0  0  0  0  0
    0.0000   -0.0000    0.0000 O   0  0  0  0  0  0  0  0  0  0  0  0
    3.4561   -1.9953    0.0000 C   0  0  0  0  0  0  0  0  0  0  0  0
    3.4561   -0.6636    0.0000 C   0  0  0  0  0  0  0  0  0  0  0  0
    4.6082   -2.6589    0.0000 Cl  0  0  0  0  0  0  0  0  0  0  0  0
  1  2  1  0  0  0  0 
  2  3  2  0  0  0  0 
  2  4  1  0  0  0  0 
  3  5  1  0  0  0  0 
  3  6  1  0  0  0  0 
  7  4  2  0  0  0  0 
  5  8  2  0  0  0  0 
  8  7  1  0  0  0  0 
  7  9  1  0  0  0  0 
M  END
> <Name>
2,4-DICHLOROPHENOL

> <Source>
DSSTox2DMolFile

> <Tox>
-1.046

> <CAS>
120-83-2

$$$$

  CDK

  6  6  0  0  0  0  0  0  0  0999 V2000
   -0.7975    0.0301   -0.4160 N   0  0  0  0  0  0  0  0  0  0  0  0
    0.0400   -1.1995   -0.2731 C   0  0  0  0  0  0  0  0  0  0  0  0
    0.0598    1.2226   -0.1336 C   0  0  0  0  0  0  0  0  0  0  0  0
   -2.0511    0.0003    0.3610 C   0  0  0  0  0  0  0  0  0  0  0  0
    1.3958   -0.7805    0.2894 C   0  0  0  0  0  0  0  0  0  0  0  0
    1.4873    0.7287    0.0930 C   0  0  0  0  0  0  0  0  0  0  0  0
  1  2  1  0  0  0  0 
  1  3  1  0  0  0  0 
  1  4  1  0  0  0  0 
  2  5  1  0  0  0  0 
  6  3  1  0  0  0  0 
  5  6  1  0  0  0  0 
M  END
> <Name>
1-METHYL-PYRROLIDINE

> <Source>
DougDB3DMolFile

> <Tox>
2.000

> <CAS>
120-94-5

$$$$

  CDK

 27 28  0  0  0  0  0  0  0  0999 V2000
   10.4100    3.6858    0.0000 C   0  0  0  0  0  0  0  0  0  0  0  0
    9.4636    3.3870    0.0000 C   0  0  0  0  0  0  0  0  0  0  0  0
   10.6590    4.6322    0.0000 C   0  0  0  0  0  0  0  0  0  0  0  0
   11.1571    2.9885    0.0000 C   0  0  0  0  0  0  0  0  0  0  0  0
    9.2644    2.3908    0.0000 C   0  0  0  0  0  0  0  0  0  0  0  0
   11.6054    4.9311    0.0000 O   0  0  0  0  0  0  0  0  0  0  0  0
    9.9119    5.3295    0.0000 O   0  0  0  0  0  0  0  0  0  0  0  0
    8.5671    1.6437    0.0000 C   0  0  0  0  0  0  0  0  0  0  0  0
    9.5633    1.4445    0.0000 C   0  0  0  0  0  0  0  0  0  0  0  0
   11.8046    5.9272    0.0000 C   0  0  0  0  0  0  0  0  0  0  0  0
    7.6207    1.3946    0.0000 C   0  0  0  0  0  0  0  0  0  0  0  0
    9.3640    0.4483    0.0000 C   0  0  0  0  0  0  0  0  0  0  0  0
   10.5096    1.7433    0.0000 C   0  0  0  0  0  0  0  0  0  0  0  0
    6.8736    1.9923    0.0000 O   0  0  0  0  0  0  0  0  0  0  0  0
    7.4215    0.3985    0.0000 O   0  0  0  0  0  0  0  0  0  0  0  0
    5.9272    1.6935    0.0000 C   0  0  0  0  0  0  0  0  0  0  0  0
    5.1303    2.2912    0.0000 C   0  0  0  0  0  0  0  0  0  0  0  0
    5.6782    0.7969    0.0000 C   0  0  0  0  0  0  0  0  0  0  0  0
    5.1303    3.3372    0.0000 C   0  0  0  0  0  0  0  0  0  0  0  0
    4.3334    1.7433    0.0000 C   0  0  0  0  0  0  0  0  0  0  0  0
    4.6322    0.7969    0.0000 C   0  0  0  0  0  0  0  0  0  0  0  0
    3.3870    2.0422    0.0000 C   0  0  0  0  0  0  0  0  0  0  0  0
    4.0345    0.0000    0.0000 O   0  0  0  0  0  0  0  0  0  0  0  0
    2.6399    1.3946    0.0000 C   0  0  0  0  0  0  0  0  0  0  0  0
    1.6935    1.7433    0.0000 C   0  0  0  0  0  0  0  0  0  0  0  0
    0.9464    1.0460    0.0000 C   0  0  0  0  0  0  0  0  0  0  0  0
    0.0000    1.3448    0.0000 C   0  0  0  0  0  0  0  0  0  0  0  0
  1  2  2  0  0  0  0 
  1  3  1  0  0  0  0 
  1  4  1  0  0  0  0 
  2  5  1  0  0  0  0 
  3  6  1  0  0  0  0 
  3  7  2  0  0  0  0 
  8  5  1  0  0  0  0 
  5  9  1  0  0  0  0 
  6 10  1  0  0  0  0 
  9  8  1  0  0  0  0 
  8 11  1  0  0  0  0 
  9 12  1  0  0  0  0 
  9 13  1  0  0  0  0 
 11 14  1  0  0  0  0 
 11 15  2  0  0  0  0 
 14 16  1  0  0  0  0 
 17 16  1  0  0  0  0 
 16 18  1  0  0  0  0 
 17 19  1  0  0  0  0 
 20 17  2  0  0  0  0 
 18 21  1  0  0  0  0 
 21 20  1  0  0  0  0 
 20 22  1  0  0  0  0 
 21 23  2  0  0  0  0 
 22 24  1  0  0  0  0 
 24 25  2  0  0  0  0 
 25 26  1  0  0  0  0 
 26 27  2  0  0  0  0 
M  END
> <Name>
PYRETHRIN II

> <Source>
NIST2DMolFile

> <Tox>
-6.400

> <CAS>
121-29-9

$$$$

  CDK

  7  6  0  0  0  0  0  0  0  0999 V2000
    3.9878   -3.4574    0.0000 C   0  0  0  0  0  0  0  0  0  0  0  0
    2.6558   -3.4574    0.0000 C   0  0  0  0  0  0  0  0  0  0  0  0
    1.9939   -2.3049    0.0000 N   0  0  0  0  0  0  0  0  0  0  0  0
    0.6620   -2.3049    0.0000 C   0  0  0  0  0  0  0  0  0  0  0  0
    2.6558   -1.1525    0.0000 C   0  0  0  0  0  0  0  0  0  0  0  0
    0.0000   -3.4574    0.0000 C   0  0  0  0  0  0  0  0  0  0  0  0
    1.9939   -0.0000    0.0000 C   0  0  0  0  0  0  0  0  0  0  0  0
  1  2  1  0  0  0  0 
  2  3  1  0  0  0  0 
  4  3  1  0  0  0  0 
  5  3  1  0  0  0  0 
  6  4  1  0  0  0  0 
  7  5  1  0  0  0  0 
M  END
> <Name>
TRIETHYLAMINE

> <Source>
DSSTox2DMolFile

> <Tox>
1.757

> <CAS>
121-44-8

$$$$

  CDK

  9  9  0  0  0  0  0  0  0  0999 V2000
    0.0000   -2.3037    0.0000 C   0  0  0  0  0  0  0  0  0  0  0  0
    0.6655   -1.1542    0.0000 N   0  0  0  0  0  0  0  0  0  0  0  0
    1.9965   -1.1542    0.0000 C   0  0  0  0  0  0  0  0  0  0  0  0
    0.0000   -0.0000    0.0000 C   0  0  0  0  0  0  0  0  0  0  0  0
    2.6574   -0.0000    0.0000 C   0  0  0  0  0  0  0  0  0  0  0  0
    2.6574   -2.3037    0.0000 C   0  0  0  0  0  0  0  0  0  0  0  0
    3.9884   -0.0000    0.0000 C   0  0  0  0  0  0  0  0  0  0  0  0
    3.9884   -2.3037    0.0000 C   0  0  0  0  0  0  0  0  0  0  0  0
    4.6539   -1.1542    0.0000 C   0  0  0  0  0  0  0  0  0  0  0  0
  1  2  1  0  0  0  0 
  2  3  1  0  0  0  0 
  2  4  1  0  0  0  0 
  3  5  2  0  0  0  0 
  3  6  1  0  0  0  0 
  5  7  1  0  0  0  0 
  8  6  2  0  0  0  0 
  7  9  2  0  0  0  0 
  9  8  1  0  0  0  0 
M  END
> <Name>
N,N-DIMETHYLANILINE

> <Source>
DSSTox2DMolFile

> <Tox>
-0.155

> <CAS>
121-69-7

$$$$

  CDK

 19 18  0  0  0  0  0  0  0  0999 V2000
    2.3016   -3.3167    0.0000 O   0  0  0  0  0  0  0  0  0  0  0  0
    3.4562   -3.9832    0.0000 C   0  0  0  0  0  0  0  0  0  0  0  0
    4.6031   -3.3167    0.0000 C   0  0  0  0  0  0  0  0  0  0  0  0
    3.4562   -5.3161    0.0000 O   0  0  0  0  0  0  0  0  0  0  0  0
    5.7578   -3.9832    0.0000 S   0  0  0  0  0  0  0  0  0  0  0  0
    4.6031   -1.9916    0.0000 C   0  0  0  0  0  0  0  0  0  0  0  0
    2.3016   -5.9748    0.0000 C   0  0  0  0  0  0  0  0  0  0  0  0
    5.7578   -5.3161    0.0000 P   0  0  0  0  0  0  0  0  0  0  0  0
    3.4562   -1.3251    0.0000 C   0  0  0  0  0  0  0  0  0  0  0  0
    2.3016   -7.3077    0.0000 C   0  0  0  0  0  0  0  0  0  0  0  0
    4.4249   -5.3161    0.0000 S   0  0  0  0  0  0  0  0  0  0  0  0
    7.0829   -5.3161    0.0000 O   0  0  0  0  0  0  0  0  0  0  0  0
    5.7578   -6.6412    0.0000 O   0  0  0  0  0  0  0  0  0  0  0  0
    3.4562   -0.0000    0.0000 O   0  0  0  0  0  0  0  0  0  0  0  0
    2.3016   -1.9916    0.0000 O   0  0  0  0  0  0  0  0  0  0  0  0
    7.7494   -4.1614    0.0000 C   0  0  0  0  0  0  0  0  0  0  0  0
    4.6031   -7.3077    0.0000 C   0  0  0  0  0  0  0  0  0  0  0  0
    1.1547   -1.3251    0.0000 C   0  0  0  0  0  0  0  0  0  0  0  0
    0.0000   -1.9916    0.0000 C   0  0  0  0  0  0  0  0  0  0  0  0
  1  2  2  0  0  0  0 
  2  3  1  0  0  0  0 
  2  4  1  0  0  0  0 
  3  5  1  0  0  0  0 
  3  6  1  0  0  0  0 
  4  7  1  0  0  0  0 
  5  8  1  0  0  0  0 
  6  9  1  0  0  0  0 
  7 10  1  0  0  0  0 
  8 11  2  0  0  0  0 
  8 12  1  0  0  0  0 
  8 13  1  0  0  0  0 
  9 14  2  0  0  0  0 
  9 15  1  0  0  0  0 
 12 16  1  0  0  0  0 
 13 17  1  0  0  0  0 
 15 18  1  0  0  0  0 
 18 19  1  0  0  0  0 
M  END
> <Name>
MALATHION

> <Source>
DSSTox2DMolFile

> <Tox>
-5.471

> <CAS>
121-75-5

$$$$

  CDK

 13 13  0  0  0  0  0  0  0  0999 V2000
    1.9952   -0.0000    0.0000 Cl  0  0  0  0  0  0  0  0  0  0  0  0
    2.6577   -1.1572    0.0000 C   0  0  0  0  0  0  0  0  0  0  0  0
    3.9905   -1.1572    0.0000 N   0  0  0  0  0  0  0  0  0  0  0  0
    1.9952   -2.3065    0.0000 N   0  0  0  0  0  0  0  0  0  0  0  0
    4.6529   -2.3065    0.0000 C   0  0  0  0  0  0  0  0  0  0  0  0
    2.6577   -3.4558    0.0000 C   0  0  0  0  0  0  0  0  0  0  0  0
    3.9905   -3.4558    0.0000 N   0  0  0  0  0  0  0  0  0  0  0  0
    5.9857   -2.3065    0.0000 N   0  0  0  0  0  0  0  0  0  0  0  0
    1.9952   -4.6130    0.0000 N   0  0  0  0  0  0  0  0  0  0  0  0
    6.6482   -3.4558    0.0000 C   0  0  0  0  0  0  0  0  0  0  0  0
    0.6624   -4.6130    0.0000 C   0  0  0  0  0  0  0  0  0  0  0  0
    7.9810   -3.4558    0.0000 C   0  0  0  0  0  0  0  0  0  0  0  0
    0.0000   -5.7623    0.0000 C   0  0  0  0  0  0  0  0  0  0  0  0
  1  2  1  0  0  0  0 
  2  3  2  0  0  0  0 
  2  4  1  0  0  0  0 
  3  5  1  0  0  0  0 
  6  4  2  0  0  0  0 
  5  7  2  0  0  0  0 
  5  8  1  0  0  0  0 
  7  6  1  0  0  0  0 
  6  9  1  0  0  0  0 
  8 10  1  0  0  0  0 
  9 11  1  0  0  0  0 
 10 12  1  0  0  0  0 
 11 13  1  0  0  0  0 
M  END
> <Name>
SIMAZINE

> <Source>
DSSTox2DMolFile

> <Tox>
-7.656

> <CAS>
122-34-9

$$$$

  CDK

 13 13  0  0  0  0  0  0  0  0999 V2000
    3.4601   -0.6694    0.0000 O   0  0  0  0  0  0  0  0  0  0  0  0
    3.4601   -2.0002    0.0000 C   0  0  0  0  0  0  0  0  0  0  0  0
    4.6054   -2.6616    0.0000 N   0  0  0  0  0  0  0  0  0  0  0  0
    2.3067   -2.6616    0.0000 O   0  0  0  0  0  0  0  0  0  0  0  0
    5.7587   -2.0002    0.0000 C   0  0  0  0  0  0  0  0  0  0  0  0
    1.1534   -2.0002    0.0000 C   0  0  0  0  0  0  0  0  0  0  0  0
    5.7587   -0.6694    0.0000 C   0  0  0  0  0  0  0  0  0  0  0  0
    6.9121   -2.6616    0.0000 C   0  0  0  0  0  0  0  0  0  0  0  0
    0.0000   -2.6616    0.0000 C   0  0  0  0  0  0  0  0  0  0  0  0
    1.1534   -0.6694    0.0000 C   0  0  0  0  0  0  0  0  0  0  0  0
    6.9121   -0.0000    0.0000 C   0  0  0  0  0  0  0  0  0  0  0  0
    8.0654   -2.0002    0.0000 C   0  0  0  0  0  0  0  0  0  0  0  0
    8.0654   -0.6694    0.0000 C   0  0  0  0  0  0  0  0  0  0  0  0
  1  2  2  0  0  0  0 
  2  3  1  0  0  0  0 
  2  4  1  0  0  0  0 
  3  5  1  0  0  0  0 
  4  6  1  0  0  0  0 
  5  7  2  0  0  0  0 
  5  8  1  0  0  0  0 
  6  9  1  0  0  0  0 
  6 10  1  0  0  0  0 
  7 11  1  0  0  0  0 
 12  8  2  0  0  0  0 
 11 13  2  0  0  0  0 
 13 12  1  0  0  0  0 
M  END
> <Name>
ISOPROPYL PHENYL CARBAMATE

> <Source>
DSSTox2DMolFile

> <Tox>
-3.854

> <CAS>
122-42-9

$$$$

  CDK

 10  9  0  0  0  0  0  0  0  0999 V2000
    4.8251    3.7963    2.0685 O   0  0  0  0  0  0  0  0  0  0  0  0
    4.2086    2.5414    2.1648 C   0  0  0  0  0  0  0  0  0  0  0  0
    5.6232    4.0167    0.9208 C   0  0  0  0  0  0  0  0  0  0  0  0
    4.9570    1.6400    2.9296 O   0  0  0  0  0  0  0  0  0  0  0  0
    3.0784    2.9914    2.8572 O   0  0  0  0  0  0  0  0  0  0  0  0
    6.9847    3.3498    0.9943 C   0  0  0  0  0  0  0  0  0  0  0  0
    5.4364    2.0594    4.2055 C   0  0  0  0  0  0  0  0  0  0  0  0
    1.9781    2.0891    2.8582 C   0  0  0  0  0  0  0  0  0  0  0  0
    6.2064    0.8864    4.7844 C   0  0  0  0  0  0  0  0  0  0  0  0
    0.8642    2.7465    3.6504 C   0  0  0  0  0  0  0  0  0  0  0  0
  1  2  1  0  0  0  0 
  1  3  1  0  0  0  0 
  2  4  1  0  0  0  0 
  2  5  1  0  0  0  0 
  3  6  1  0  0  0  0 
  4  7  1  0  0  0  0 
  5  8  1  0  0  0  0 
  7  9  1  0  0  0  0 
  8 10  1  0  0  0  0 
M  END
> <Name>
ETHYL ORTHOFORMATE

> <Source>
NIST3DMolFile

> <Tox>
0.587

> <CAS>
122-51-0

$$$$

  CDK

 11 11  0  0  0  0  0  0  0  0999 V2000
    0.0000   -2.3079    0.0000 O   0  0  0  0  0  0  0  0  0  0  0  0
    0.6651   -1.1573    0.0000 C   0  0  0  0  0  0  0  0  0  0  0  0
    1.9953   -1.1573    0.0000 C   0  0  0  0  0  0  0  0  0  0  0  0
    0.0000   -0.0000    0.0000 C   0  0  0  0  0  0  0  0  0  0  0  0
    2.6605   -2.3079    0.0000 C   0  0  0  0  0  0  0  0  0  0  0  0
    3.9907   -2.3079    0.0000 C   0  0  0  0  0  0  0  0  0  0  0  0
    4.6558   -1.1573    0.0000 C   0  0  0  0  0  0  0  0  0  0  0  0
    4.6558   -3.4586    0.0000 C   0  0  0  0  0  0  0  0  0  0  0  0
    5.9860   -1.1573    0.0000 C   0  0  0  0  0  0  0  0  0  0  0  0
    5.9860   -3.4586    0.0000 C   0  0  0  0  0  0  0  0  0  0  0  0
    6.6511   -2.3079    0.0000 C   0  0  0  0  0  0  0  0  0  0  0  0
  1  2  2  0  0  0  0 
  2  3  1  0  0  0  0 
  2  4  1  0  0  0  0 
  3  5  2  0  0  0  0 
  5  6  1  0  0  0  0 
  6  7  2  0  0  0  0 
  6  8  1  0  0  0  0 
  7  9  1  0  0  0  0 
 10  8  2  0  0  0  0 
  9 11  2  0  0  0  0 
 11 10  1  0  0  0  0 
M  END
> <Name>
METHYL STYRYL KETONE

> <Source>
DSSTox2DMolFile

> <Tox>
-1.907

> <CAS>
122-57-6

$$$$

  CDK

 11 12  0  0  0  0  0  0  0  0999 V2000
    3.9880   -1.1486    0.0000 O   0  0  0  0  0  0  0  0  0  0  0  0
    2.6611   -1.1486    0.0000 C   0  0  0  0  0  0  0  0  0  0  0  0
    4.6515   -2.3043    0.0000 C   0  0  0  0  0  0  0  0  0  0  0  0
    1.9976   -2.3043    0.0000 C   0  0  0  0  0  0  0  0  0  0  0  0
    1.9976   -0.0000    0.0000 C   0  0  0  0  0  0  0  0  0  0  0  0
    5.9856   -2.3043    0.0000 C   0  0  0  0  0  0  0  0  0  0  0  0
    0.6635   -2.3043    0.0000 C   0  0  0  0  0  0  0  0  0  0  0  0
    0.6635   -0.0000    0.0000 C   0  0  0  0  0  0  0  0  0  0  0  0
    7.1342   -1.6409    0.0000 C   0  0  0  0  0  0  0  0  0  0  0  0
    7.1342   -2.9678    0.0000 O   0  0  0  0  0  0  0  0  0  0  0  0
    0.0000   -1.1486    0.0000 C   0  0  0  0  0  0  0  0  0  0  0  0
  1  2  1  0  0  0  0 
  1  3  1  0  0  0  0 
  2  4  2  0  0  0  0 
  2  5  1  0  0  0  0 
  3  6  1  0  0  0  0 
  4  7  1  0  0  0  0 
  8  5  2  0  0  0  0 
  6  9  1  0  0  0  0 
  6 10  1  0  0  0  0 
  7 11  2  0  0  0  0 
 11  8  1  0  0  0  0 
  9 10  1  0  0  0  0 
M  END
> <Name>
PHENYL GLYDIDYL ETHER

> <Source>
DSSTox2DMolFile

> <Tox>
-2.000

> <CAS>
122-60-1

$$$$

  CDK

 14 15  0  0  0  0  0  0  0  0999 V2000
    3.9928   -1.1581    0.0000 N   0  0  0  0  0  0  0  0  0  0  0  0
    2.6619   -1.1581    0.0000 C   0  0  0  0  0  0  0  0  0  0  0  0
    4.6497   -2.3075    0.0000 N   0  0  0  0  0  0  0  0  0  0  0  0
    1.9964   -2.3075    0.0000 C   0  0  0  0  0  0  0  0  0  0  0  0
    1.9964   -0.0000    0.0000 C   0  0  0  0  0  0  0  0  0  0  0  0
    5.9806   -2.3075    0.0000 C   0  0  0  0  0  0  0  0  0  0  0  0
    0.6655   -2.3075    0.0000 C   0  0  0  0  0  0  0  0  0  0  0  0
    0.6655   -0.0000    0.0000 C   0  0  0  0  0  0  0  0  0  0  0  0
    6.6461   -1.1581    0.0000 C   0  0  0  0  0  0  0  0  0  0  0  0
    6.6461   -3.4570    0.0000 C   0  0  0  0  0  0  0  0  0  0  0  0
    0.0000   -1.1581    0.0000 C   0  0  0  0  0  0  0  0  0  0  0  0
    7.9770   -1.1581    0.0000 C   0  0  0  0  0  0  0  0  0  0  0  0
    7.9770   -3.4570    0.0000 C   0  0  0  0  0  0  0  0  0  0  0  0
    8.6425   -2.3075    0.0000 C   0  0  0  0  0  0  0  0  0  0  0  0
  1  2  1  0  0  0  0 
  1  3  1  0  0  0  0 
  2  4  2  0  0  0  0 
  2  5  1  0  0  0  0 
  3  6  1  0  0  0  0 
  4  7  1  0  0  0  0 
  8  5  2  0  0  0  0 
  6  9  2  0  0  0  0 
  6 10  1  0  0  0  0 
  7 11  2  0  0  0  0 
 11  8  1  0  0  0  0 
  9 12  1  0  0  0  0 
 13 10  2  0  0  0  0 
 12 14  2  0  0  0  0 
 14 13  1  0  0  0  0 
M  END
> <Name>
HYDRAZOBENZENE

> <Source>
DSSTox2DMolFile

> <Tox>
-3.361

> <CAS>
122-66-7

$$$$

  CDK

  9  9  0  0  0  0  0  0  0  0999 V2000
    0.0000   -0.0000    0.0000 O   0  0  0  0  0  0  0  0  0  0  0  0
    1.3283   -0.0000    0.0000 C   0  0  0  0  0  0  0  0  0  0  0  0
    1.9925   -1.1548    0.0000 C   0  0  0  0  0  0  0  0  0  0  0  0
    3.3269   -1.1548    0.0000 C   0  0  0  0  0  0  0  0  0  0  0  0
    3.9910   -0.0000    0.0000 C   0  0  0  0  0  0  0  0  0  0  0  0
    3.9910   -2.3037    0.0000 C   0  0  0  0  0  0  0  0  0  0  0  0
    5.3194   -0.0000    0.0000 C   0  0  0  0  0  0  0  0  0  0  0  0
    5.3194   -2.3037    0.0000 C   0  0  0  0  0  0  0  0  0  0  0  0
    5.9836   -1.1548    0.0000 C   0  0  0  0  0  0  0  0  0  0  0  0
  1  2  2  0  0  0  0 
  2  3  1  0  0  0  0 
  3  4  1  0  0  0  0 
  4  5  2  0  0  0  0 
  4  6  1  0  0  0  0 
  5  7  1  0  0  0  0 
  8  6  2  0  0  0  0 
  7  9  2  0  0  0  0 
  9  8  1  0  0  0  0 
M  END
> <Name>
PHENYLACETALDEHYDE

> <Source>
DSSTox2DMolFile

> <Tox>
-0.407

> <CAS>
122-78-1

$$$$

  CDK

 10 10  0  0  0  0  0  0  0  0999 V2000
    2.0883   -0.0031    0.1937 C   0  0  0  0  0  0  0  0  0  0  0  0
    3.4639    0.0098   -0.4096 C   0  0  0  0  0  0  0  0  0  0  0  0
    1.7873   -0.0068    1.3680 O   0  0  0  0  0  0  0  0  0  0  0  0
    1.1033   -0.0087   -0.7653 O   0  0  0  0  0  0  0  0  0  0  0  0
   -0.2311   -0.0037   -0.3538 C   0  0  0  0  0  0  0  0  0  0  0  0
   -0.8955    1.2182   -0.2142 C   0  0  0  0  0  0  0  0  0  0  0  0
   -0.9050   -1.2205   -0.2158 C   0  0  0  0  0  0  0  0  0  0  0  0
   -2.2577    1.2109    0.0644 C   0  0  0  0  0  0  0  0  0  0  0  0
   -2.2672   -1.2028    0.0626 C   0  0  0  0  0  0  0  0  0  0  0  0
   -2.9410    0.0066    0.2022 C   0  0  0  0  0  0  0  0  0  0  0  0
  1  2  1  0  0  0  0 
  1  3  2  0  0  0  0 
  1  4  1  0  0  0  0 
  4  5  1  0  0  0  0 
  5  6  1  0  0  0  0 
  5  7  2  0  0  0  0 
  6  8  2  0  0  0  0 
  9  7  1  0  0  0  0 
  8 10  1  0  0  0  0 
 10  9  2  0  0  0  0 
M  END
> <Name>
PHENYL ACETATE

> <Source>
DougDB3DMolFile

> <Tox>
-0.400

> <CAS>
122-79-2

$$$$

  CDK

 10 10  0  0  0  0  0  0  0  0999 V2000
    2.7167    0.5082   -0.1291 C   0  0  0  0  0  0  0  0  0  0  0  0
    2.1620   -0.9177   -0.1078 C   0  0  0  0  0  0  0  0  0  0  0  0
    1.9423    1.4131   -0.8674 O   0  0  0  0  0  0  0  0  0  0  0  0
    1.0505   -1.1204    0.9146 C   0  0  0  0  0  0  0  0  0  0  0  0
   -0.2584   -0.5491    0.4704 C   0  0  0  0  0  0  0  0  0  0  0  0
   -0.9969   -1.1889   -0.5276 C   0  0  0  0  0  0  0  0  0  0  0  0
   -0.7601    0.6144    1.0562 C   0  0  0  0  0  0  0  0  0  0  0  0
   -2.2207   -0.6702   -0.9332 C   0  0  0  0  0  0  0  0  0  0  0  0
   -1.9856    1.1302    0.6480 C   0  0  0  0  0  0  0  0  0  0  0  0
   -2.7168    0.4897   -0.3461 C   0  0  0  0  0  0  0  0  0  0  0  0
  1  2  1  0  0  0  0 
  1  3  1  0  0  0  0 
  2  4  1  0  0  0  0 
  4  5  1  0  0  0  0 
  5  6  1  0  0  0  0 
  5  7  2  0  0  0  0 
  6  8  2  0  0  0  0 
  9  7  1  0  0  0  0 
  8 10  1  0  0  0  0 
 10  9  2  0  0  0  0 
M  END
> <Name>
3-PHENYLPROPANOL

> <Source>
DougDB3DMolFile

> <Tox>
-1.701

> <CAS>
122-97-4

$$$$

  CDK

 10 10  0  0  0  0  0  0  0  0999 V2000
   -3.1965    0.4710   -0.0013 C   0  0  0  0  0  0  0  0  0  0  0  0
   -1.8538   -0.2696   -0.0010 C   0  0  0  0  0  0  0  0  0  0  0  0
   -4.2034   -0.5137    0.0019 O   0  0  0  0  0  0  0  0  0  0  0  0
   -0.7347    0.6886   -0.0004 N   0  0  0  0  0  0  0  0  0  0  0  0
    0.6159    0.2863   -0.0001 C   0  0  0  0  0  0  0  0  0  0  0  0
    0.9922   -1.0666   -0.0004 C   0  0  0  0  0  0  0  0  0  0  0  0
    1.6108    1.2823    0.0004 C   0  0  0  0  0  0  0  0  0  0  0  0
    2.3386   -1.4059   -0.0002 C   0  0  0  0  0  0  0  0  0  0  0  0
    2.9491    0.9206    0.0006 C   0  0  0  0  0  0  0  0  0  0  0  0
    3.3195   -0.4209    0.0003 C   0  0  0  0  0  0  0  0  0  0  0  0
  1  2  1  0  0  0  0 
  1  3  1  0  0  0  0 
  2  4  1  0  0  0  0 
  4  5  1  0  0  0  0 
  5  6  1  0  0  0  0 
  5  7  2  0  0  0  0 
  6  8  2  0  0  0  0 
  9  7  1  0  0  0  0 
  8 10  1  0  0  0  0 
 10  9  2  0  0  0  0 
M  END
> <Name>
2-ANILINOETHANOL

> <Source>
DougDB3DMolFile

> <Tox>
-2.656

> <CAS>
122-98-5

$$$$

  CDK

 10 10  0  0  0  0  0  0  0  0999 V2000
    1.1518   -2.6606    0.0000 C   0  0  0  0  0  0  0  0  0  0  0  0
    0.0000   -1.9984    0.0000 C   0  0  0  0  0  0  0  0  0  0  0  0
    2.3036   -1.9984    0.0000 C   0  0  0  0  0  0  0  0  0  0  0  0
    0.0000   -0.6680    0.0000 C   0  0  0  0  0  0  0  0  0  0  0  0
    2.3036   -0.6680    0.0000 C   0  0  0  0  0  0  0  0  0  0  0  0
    3.4554   -2.6606    0.0000 O   0  0  0  0  0  0  0  0  0  0  0  0
    1.1518   -0.0000    0.0000 C   0  0  0  0  0  0  0  0  0  0  0  0
    4.6072   -1.9984    0.0000 C   0  0  0  0  0  0  0  0  0  0  0  0
    4.6072   -0.6680    0.0000 C   0  0  0  0  0  0  0  0  0  0  0  0
    5.7590   -0.0000    0.0000 O   0  0  0  0  0  0  0  0  0  0  0  0
  1  2  2  0  0  0  0 
  1  3  1  0  0  0  0 
  2  4  1  0  0  0  0 
  5  3  2  0  0  0  0 
  3  6  1  0  0  0  0 
  4  7  2  0  0  0  0 
  7  5  1  0  0  0  0 
  6  8  1  0  0  0  0 
  8  9  1  0  0  0  0 
  9 10  1  0  0  0  0 
M  END
> <Name>
2-PHENOXYETHANOL

> <Source>
DSSTox2DMolFile

> <Tox>
-2.155

> <CAS>
122-99-6

$$$$

  CDK

 18 18  0  0  0  0  0  0  0  0999 V2000
    2.3086   -0.6619    0.0000 C   0  0  0  0  0  0  0  0  0  0  0  0
    2.3086   -1.9857    0.0000 C   0  0  0  0  0  0  0  0  0  0  0  0
    1.1462   -0.0000    0.0000 C   0  0  0  0  0  0  0  0  0  0  0  0
    3.4710   -0.0000    0.0000 C   0  0  0  0  0  0  0  0  0  0  0  0
    1.1462   -2.6638    0.0000 C   0  0  0  0  0  0  0  0  0  0  0  0
    0.0000   -0.6619    0.0000 C   0  0  0  0  0  0  0  0  0  0  0  0
    4.6173   -0.6619    0.0000 C   0  0  0  0  0  0  0  0  0  0  0  0
    0.0000   -1.9857    0.0000 C   0  0  0  0  0  0  0  0  0  0  0  0
    5.7635   -0.0000    0.0000 C   0  0  0  0  0  0  0  0  0  0  0  0
    6.9259   -0.6619    0.0000 C   0  0  0  0  0  0  0  0  0  0  0  0
    8.0721   -0.0000    0.0000 C   0  0  0  0  0  0  0  0  0  0  0  0
    9.2184   -0.6619    0.0000 C   0  0  0  0  0  0  0  0  0  0  0  0
   10.3807   -0.0000    0.0000 C   0  0  0  0  0  0  0  0  0  0  0  0
   11.5270   -0.6619    0.0000 C   0  0  0  0  0  0  0  0  0  0  0  0
   12.6732   -0.0000    0.0000 C   0  0  0  0  0  0  0  0  0  0  0  0
   13.8356   -0.6619    0.0000 C   0  0  0  0  0  0  0  0  0  0  0  0
   14.9980   -0.0000    0.0000 C   0  0  0  0  0  0  0  0  0  0  0  0
   16.1442   -0.6619    0.0000 C   0  0  0  0  0  0  0  0  0  0  0  0
  1  2  2  0  0  0  0 
  1  3  1  0  0  0  0 
  1  4  1  0  0  0  0 
  2  5  1  0  0  0  0 
  6  3  2  0  0  0  0 
  4  7  1  0  0  0  0 
  5  8  2  0  0  0  0 
  8  6  1  0  0  0  0 
  7  9  1  0  0  0  0 
  9 10  1  0  0  0  0 
 10 11  1  0  0  0  0 
 11 12  1  0  0  0  0 
 12 13  1  0  0  0  0 
 13 14  1  0  0  0  0 
 14 15  1  0  0  0  0 
 15 16  1  0  0  0  0 
 16 17  1  0  0  0  0 
 17 18  1  0  0  0  0 
M  END
> <Name>
DODECYLBENZENE

> <Source>
DSSTox2DMolFile

> <Tox>
-4.292

> <CAS>
123-01-3

$$$$

  CDK

 19 19  0  0  0  0  0  0  0  0999 V2000
   -1.8743    0.0595    0.2927 C   0  0  0  0  0  0  0  0  0  0  0  0
   -3.2027   -0.5064   -0.2142 C   0  0  0  0  0  0  0  0  0  0  0  0
   -0.6862   -0.6088   -0.4030 C   0  0  0  0  0  0  0  0  0  0  0  0
   -4.4290    0.1776    0.3970 C   0  0  0  0  0  0  0  0  0  0  0  0
    0.6417   -0.0183    0.0744 C   0  0  0  0  0  0  0  0  0  0  0  0
   -5.7562   -0.3374   -0.1642 C   0  0  0  0  0  0  0  0  0  0  0  0
    1.8310   -0.7094   -0.5962 C   0  0  0  0  0  0  0  0  0  0  0  0
   -6.9425    0.4296    0.4268 C   0  0  0  0  0  0  0  0  0  0  0  0
    3.1583   -0.0939   -0.1418 C   0  0  0  0  0  0  0  0  0  0  0  0
   -8.2677   -0.0596   -0.1621 C   0  0  0  0  0  0  0  0  0  0  0  0
    4.3805   -0.7732   -0.7697 C   0  0  0  0  0  0  0  0  0  0  0  0
   -9.4893    0.6592    0.4142 C   0  0  0  0  0  0  0  0  0  0  0  0
    5.6992   -0.2315   -0.2780 C   0  0  0  0  0  0  0  0  0  0  0  0
  -10.8070    0.1949   -0.1868 C   0  0  0  0  0  0  0  0  0  0  0  0
    6.2915    0.8295   -0.9463 C   0  0  0  0  0  0  0  0  0  0  0  0
    6.2982   -0.8035    0.8342 C   0  0  0  0  0  0  0  0  0  0  0  0
    7.5115    1.3302   -0.4917 C   0  0  0  0  0  0  0  0  0  0  0  0
    7.5181   -0.3027    1.2889 C   0  0  0  0  0  0  0  0  0  0  0  0
    8.1248    0.7641    0.6258 C   0  0  0  0  0  0  0  0  0  0  0  0
  1  2  1  0  0  0  0 
  1  3  1  0  0  0  0 
  2  4  1  0  0  0  0 
  3  5  1  0  0  0  0 
  4  6  1  0  0  0  0 
  5  7  1  0  0  0  0 
  6  8  1  0  0  0  0 
  7  9  1  0  0  0  0 
  8 10  1  0  0  0  0 
  9 11  1  0  0  0  0 
 10 12  1  0  0  0  0 
 11 13  1  0  0  0  0 
 12 14  1  0  0  0  0 
 13 15  2  0  0  0  0 
 13 16  1  0  0  0  0 
 15 17  1  0  0  0  0 
 16 18  2  0  0  0  0 
 17 19  2  0  0  0  0 
 18 19  1  0  0  0  0 
M  END
> <Name>
1-PHENYLTRIDECANE

> <Source>
Chemidplus3DMolFile

> <Tox>
-4.896

> <CAS>
123-02-4

$$$$

  CDK

  9  9  0  0  0  0  0  0  0  0999 V2000
    5.9806   -1.1542    0.0000 O   0  0  0  0  0  0  0  0  0  0  0  0
    4.6529   -1.1542    0.0000 C   0  0  0  0  0  0  0  0  0  0  0  0
    3.9890   -2.3025    0.0000 C   0  0  0  0  0  0  0  0  0  0  0  0
    3.9890   -0.0000    0.0000 C   0  0  0  0  0  0  0  0  0  0  0  0
    2.6554   -2.3025    0.0000 C   0  0  0  0  0  0  0  0  0  0  0  0
    2.6554   -0.0000    0.0000 C   0  0  0  0  0  0  0  0  0  0  0  0
    1.9915   -1.1542    0.0000 C   0  0  0  0  0  0  0  0  0  0  0  0
    0.6638   -1.1542    0.0000 C   0  0  0  0  0  0  0  0  0  0  0  0
    0.0000   -0.0000    0.0000 C   0  0  0  0  0  0  0  0  0  0  0  0
  1  2  1  0  0  0  0 
  2  3  2  0  0  0  0 
  2  4  1  0  0  0  0 
  3  5  1  0  0  0  0 
  6  4  2  0  0  0  0 
  5  7  2  0  0  0  0 
  7  6  1  0  0  0  0 
  7  8  1  0  0  0  0 
  8  9  1  0  0  0  0 
M  END
> <Name>
P-ETHYLPHENOL

> <Source>
DSSTox2DMolFile

> <Tox>
-1.429

> <CAS>
123-07-9

$$$$

  CDK

  8  7  0  0  0  0  0  0  0  0999 V2000
    3.7621    0.6302   -0.0302 C   0  0  0  0  0  0  0  0  0  0  0  0
    2.5467   -0.2608    0.0965 C   0  0  0  0  0  0  0  0  0  0  0  0
    1.2648    0.5282   -0.1026 C   0  0  0  0  0  0  0  0  0  0  0  0
   -0.0001   -0.3001    0.0024 C   0  0  0  0  0  0  0  0  0  0  0  0
   -1.2656    0.5266    0.1101 C   0  0  0  0  0  0  0  0  0  0  0  0
    0.0008   -1.5154    0.0008 O   0  0  0  0  0  0  0  0  0  0  0  0
   -2.5466   -0.2608   -0.1012 C   0  0  0  0  0  0  0  0  0  0  0  0
   -3.7621    0.6302    0.0245 C   0  0  0  0  0  0  0  0  0  0  0  0
  1  2  1  0  0  0  0 
  2  3  1  0  0  0  0 
  3  4  1  0  0  0  0 
  4  5  1  0  0  0  0 
  4  6  2  0  0  0  0 
  5  7  1  0  0  0  0 
  7  8  1  0  0  0  0 
M  END
> <Name>
DI(N-PROPYL) KETONE

> <Source>
DougDB3DMolFile

> <Tox>
0.787

> <CAS>
123-19-3

$$$$

  CDK

 12 11  0  0  0  0  0  0  0  0999 V2000
   -1.8826    0.4244   -0.0034 C   0  0  0  0  0  0  0  0  0  0  0  0
   -0.6300   -0.4224   -0.0037 C   0  0  0  0  0  0  0  0  0  0  0  0
   -1.9775    1.6364   -0.0082 O   0  0  0  0  0  0  0  0  0  0  0  0
   -3.0147   -0.3358    0.0032 O   0  0  0  0  0  0  0  0  0  0  0  0
    0.6305    0.4255   -0.0081 C   0  0  0  0  0  0  0  0  0  0  0  0
   -4.2817    0.3262    0.0038 C   0  0  0  0  0  0  0  0  0  0  0  0
    1.8823   -0.4225   -0.0053 C   0  0  0  0  0  0  0  0  0  0  0  0
   -5.3349   -0.7648    0.0107 C   0  0  0  0  0  0  0  0  0  0  0  0
    1.9748   -1.6348   -0.0089 O   0  0  0  0  0  0  0  0  0  0  0  0
    3.0157    0.3358    0.0020 O   0  0  0  0  0  0  0  0  0  0  0  0
    4.2816   -0.3284    0.0048 C   0  0  0  0  0  0  0  0  0  0  0  0
    5.3366    0.7609    0.0120 C   0  0  0  0  0  0  0  0  0  0  0  0
  1  2  1  0  0  0  0 
  1  3  2  0  0  0  0 
  1  4  1  0  0  0  0 
  2  5  1  0  0  0  0 
  4  6  1  0  0  0  0 
  5  7  1  0  0  0  0 
  6  8  1  0  0  0  0 
  7  9  2  0  0  0  0 
  7 10  1  0  0  0  0 
 10 11  1  0  0  0  0 
 11 12  1  0  0  0  0 
M  END
> <Name>
DIETHYL SUCCINATE

> <Source>
DougDB3DMolFile

> <Tox>
-1.358

> <CAS>
123-25-1

$$$$

  CDK

  8  8  0  0  0  0  0  0  0  0999 V2000
    0.0000   -1.1545    0.0000 O   0  0  0  0  0  0  0  0  0  0  0  0
    1.3300   -1.1545    0.0000 C   0  0  0  0  0  0  0  0  0  0  0  0
    1.9950   -0.0000    0.0000 C   0  0  0  0  0  0  0  0  0  0  0  0
    1.9950   -2.3036    0.0000 C   0  0  0  0  0  0  0  0  0  0  0  0
    3.3250   -0.0000    0.0000 C   0  0  0  0  0  0  0  0  0  0  0  0
    3.3250   -2.3036    0.0000 C   0  0  0  0  0  0  0  0  0  0  0  0
    3.9900   -1.1545    0.0000 C   0  0  0  0  0  0  0  0  0  0  0  0
    5.3201   -1.1545    0.0000 N   0  0  0  0  0  0  0  0  0  0  0  0
  1  2  1  0  0  0  0 
  2  3  2  0  0  0  0 
  2  4  1  0  0  0  0 
  3  5  1  0  0  0  0 
  6  4  2  0  0  0  0 
  5  7  2  0  0  0  0 
  7  6  1  0  0  0  0 
  7  8  1  0  0  0  0 
M  END
> <Name>
PHENOL, 4-AMINO-

> <Source>
DSSTox2DMolFile

> <Tox>
-4.398

> <CAS>
123-30-8

$$$$

  CDK

  8  8  0  0  0  0  0  0  0  0999 V2000
    0.0000   -1.1545    0.0000 O   0  0  0  0  0  0  0  0  0  0  0  0
    1.3300   -1.1545    0.0000 C   0  0  0  0  0  0  0  0  0  0  0  0
    1.9950   -0.0000    0.0000 C   0  0  0  0  0  0  0  0  0  0  0  0
    1.9950   -2.3036    0.0000 C   0  0  0  0  0  0  0  0  0  0  0  0
    3.3250   -0.0000    0.0000 C   0  0  0  0  0  0  0  0  0  0  0  0
    3.3250   -2.3036    0.0000 C   0  0  0  0  0  0  0  0  0  0  0  0
    3.9900   -1.1545    0.0000 C   0  0  0  0  0  0  0  0  0  0  0  0
    5.3201   -1.1545    0.0000 O   0  0  0  0  0  0  0  0  0  0  0  0
  1  2  1  0  0  0  0 
  2  3  2  0  0  0  0 
  2  4  1  0  0  0  0 
  3  5  1  0  0  0  0 
  6  4  2  0  0  0  0 
  5  7  2  0  0  0  0 
  7  6  1  0  0  0  0 
  7  8  1  0  0  0  0 
M  END
> <Name>
HYDROQUINONE

> <Source>
DSSTox2DMolFile

> <Tox>
-4.620

> <CAS>
123-31-9

$$$$

  CDK

 10  9  0  0  0  0  0  0  0  0999 V2000
    1.9943   -1.1567    0.0000 C   0  0  0  0  0  0  0  0  0  0  0  0
    2.6590   -0.0000    0.0000 C   0  0  0  0  0  0  0  0  0  0  0  0
    0.6648   -1.1567    0.0000 C   0  0  0  0  0  0  0  0  0  0  0  0
    2.6590   -2.3067    0.0000 C   0  0  0  0  0  0  0  0  0  0  0  0
    0.0000   -2.3067    0.0000 C   0  0  0  0  0  0  0  0  0  0  0  0
    3.9885   -2.3067    0.0000 C   0  0  0  0  0  0  0  0  0  0  0  0
    4.6533   -1.1567    0.0000 C   0  0  0  0  0  0  0  0  0  0  0  0
    5.9828   -1.1567    0.0000 C   0  0  0  0  0  0  0  0  0  0  0  0
    6.6475   -0.0000    0.0000 C   0  0  0  0  0  0  0  0  0  0  0  0
    6.6475   -2.3067    0.0000 C   0  0  0  0  0  0  0  0  0  0  0  0
  1  2  2  0  0  0  0 
  1  3  1  0  0  0  0 
  1  4  1  0  0  0  0 
  3  5  2  0  0  0  0 
  4  6  1  0  0  0  0 
  6  7  1  0  0  0  0 
  7  8  2  0  0  0  0 
  8  9  1  0  0  0  0 
  8 10  1  0  0  0  0 
M  END
> <Name>
3-METHYLENE-7-METHYL-1,6-OCTADIENE  (MYRCENE)

> <Source>
DSSTox2DMolFile

> <Tox>
0.303

> <CAS>
123-35-3

$$$$

  CDK

  4  3  0  0  0  0  0  0  0  0999 V2000
    0.0000   -0.0000    0.0000 C   0  0  0  0  0  0  0  0  0  0  0  0
    1.1513   -0.6638    0.0000 C   0  0  0  0  0  0  0  0  0  0  0  0
    2.3061   -0.0000    0.0000 C   0  0  0  0  0  0  0  0  0  0  0  0
    3.4575   -0.6638    0.0000 O   0  0  0  0  0  0  0  0  0  0  0  0
  1  2  1  0  0  0  0 
  2  3  1  0  0  0  0 
  3  4  2  0  0  0  0 
M  END
> <Name>
PROPIONALDEHYDE

> <Source>
DSSTox2DMolFile

> <Tox>
2.501

> <CAS>
123-38-6

$$$$

  CDK

  4  3  0  0  0  0  0  0  0  0999 V2000
    3.4575   -0.0000    0.0000 O   0  0  0  0  0  0  0  0  0  0  0  0
    2.3061   -0.6638    0.0000 C   0  0  0  0  0  0  0  0  0  0  0  0
    1.1513   -0.0000    0.0000 N   0  0  0  0  0  0  0  0  0  0  0  0
    0.0000   -0.6638    0.0000 C   0  0  0  0  0  0  0  0  0  0  0  0
  1  2  2  0  0  0  0 
  2  3  1  0  0  0  0 
  3  4  1  0  0  0  0 
M  END
> <Name>
METHYLFORMAMIDE

> <Source>
DSSTox2DMolFile

> <Tox>
-0.597

> <CAS>
123-39-7

$$$$

  CDK

  6  5  0  0  0  0  0  0  0  0999 V2000
    2.3042   -1.9954    0.0000 C   0  0  0  0  0  0  0  0  0  0  0  0
    1.1521   -1.3318    0.0000 C   0  0  0  0  0  0  0  0  0  0  0  0
    3.4563   -1.3318    0.0000 C   0  0  0  0  0  0  0  0  0  0  0  0
    0.0000   -1.9954    0.0000 O   0  0  0  0  0  0  0  0  0  0  0  0
    3.4563   -0.0000    0.0000 C   0  0  0  0  0  0  0  0  0  0  0  0
    4.6084   -1.9954    0.0000 C   0  0  0  0  0  0  0  0  0  0  0  0
  1  2  1  0  0  0  0 
  1  3  1  0  0  0  0 
  2  4  1  0  0  0  0 
  3  5  1  0  0  0  0 
  3  6  1  0  0  0  0 
M  END
> <Name>
ISOPENTANOL

> <Source>
DSSTox2DMolFile

> <Tox>
0.375

> <CAS>
123-51-3

$$$$

  CDK

  7  7  0  0  0  0  0  0  0  0999 V2000
    0.0000    2.0588    0.0000 O   0  0  0  0  0  0  0  0  0  0  0  0
    0.9779    1.7500    0.0000 C   0  0  0  0  0  0  0  0  0  0  0  0
    1.8015    2.3162    0.0000 C   0  0  0  0  0  0  0  0  0  0  0  0
    1.3382    0.8235    0.0000 N   0  0  0  0  0  0  0  0  0  0  0  0
    2.6250    1.7500    0.0000 C   0  0  0  0  0  0  0  0  0  0  0  0
    2.2647    0.8235    0.0000 C   0  0  0  0  0  0  0  0  0  0  0  0
    2.9338    0.0000    0.0000 O   0  0  0  0  0  0  0  0  0  0  0  0
  1  2  2  0  0  0  0 
  2  3  1  0  0  0  0 
  4  2  1  0  0  0  0 
  3  5  1  0  0  0  0 
  6  4  1  0  0  0  0 
  5  6  1  0  0  0  0 
  6  7  2  0  0  0  0 
M  END
> <Name>
SUCCINIMIDE

> <Source>
NIST2DMolFile

> <Tox>
-4.125

> <CAS>
123-56-8

$$$$

  CDK

  9  8  0  0  0  0  0  0  0  0999 V2000
    4.6232   -1.3308    0.0000 C   0  0  0  0  0  0  0  0  0  0  0  0
    5.7739   -1.9893    0.0000 C   0  0  0  0  0  0  0  0  0  0  0  0
    3.4657   -1.9893    0.0000 O   0  0  0  0  0  0  0  0  0  0  0  0
    4.6232   -0.0000    0.0000 O   0  0  0  0  0  0  0  0  0  0  0  0
    6.9314   -1.3308    0.0000 C   0  0  0  0  0  0  0  0  0  0  0  0
    2.3082   -1.3308    0.0000 C   0  0  0  0  0  0  0  0  0  0  0  0
    1.1575   -1.9893    0.0000 C   0  0  0  0  0  0  0  0  0  0  0  0
    2.3082   -0.0000    0.0000 O   0  0  0  0  0  0  0  0  0  0  0  0
    0.0000   -1.3308    0.0000 C   0  0  0  0  0  0  0  0  0  0  0  0
  1  2  1  0  0  0  0 
  1  3  1  0  0  0  0 
  1  4  2  0  0  0  0 
  2  5  1  0  0  0  0 
  3  6  1  0  0  0  0 
  6  7  1  0  0  0  0 
  6  8  2  0  0  0  0 
  7  9  1  0  0  0  0 
M  END
> <Name>
PROPIONIC ANHYDRIDE

> <Source>
DSSTox2DMolFile

> <Tox>
0.134

> <CAS>
123-62-6

$$$$

  CDK

  9  9  0  0  0  0  0  0  0  0999 V2000
    1.3315   -2.3037    0.0000 C   0  0  0  0  0  0  0  0  0  0  0  0
    0.0000   -2.3037    0.0000 C   0  0  0  0  0  0  0  0  0  0  0  0
    1.9950   -1.1518    0.0000 O   0  0  0  0  0  0  0  0  0  0  0  0
    1.9950   -3.4555    0.0000 O   0  0  0  0  0  0  0  0  0  0  0  0
    3.3265   -1.1518    0.0000 C   0  0  0  0  0  0  0  0  0  0  0  0
    3.3265   -3.4555    0.0000 C   0  0  0  0  0  0  0  0  0  0  0  0
    3.9899   -0.0000    0.0000 C   0  0  0  0  0  0  0  0  0  0  0  0
    3.9899   -2.3037    0.0000 O   0  0  0  0  0  0  0  0  0  0  0  0
    3.9899   -4.6073    0.0000 C   0  0  0  0  0  0  0  0  0  0  0  0
  1  2  1  0  0  0  0 
  1  3  1  0  0  0  0 
  1  4  1  0  0  0  0 
  3  5  1  0  0  0  0 
  6  4  1  0  0  0  0 
  5  7  1  0  0  0  0 
  5  8  1  0  0  0  0 
  8  6  1  0  0  0  0 
  6  9  1  0  0  0  0 
M  END
> <Name>
PARALDEHYDE

> <Source>
DSSTox2DMolFile

> <Tox>
1.041

> <CAS>
123-63-7

$$$$

  CDK

  5  4  0  0  0  0  0  0  0  0999 V2000
    0.0000   -0.6638    0.0000 C   0  0  0  0  0  0  0  0  0  0  0  0
    1.1525   -0.0000    0.0000 C   0  0  0  0  0  0  0  0  0  0  0  0
    2.3050   -0.6638    0.0000 C   0  0  0  0  0  0  0  0  0  0  0  0
    3.4575   -0.0000    0.0000 C   0  0  0  0  0  0  0  0  0  0  0  0
    4.6099   -0.6638    0.0000 O   0  0  0  0  0  0  0  0  0  0  0  0
  1  2  1  0  0  0  0 
  2  3  1  0  0  0  0 
  3  4  1  0  0  0  0 
  4  5  2  0  0  0  0 
M  END
> <Name>
BUTYRALDEHYDE

> <Source>
DSSTox2DMolFile

> <Tox>
2.045

> <CAS>
123-72-8

$$$$

  CDK

  5  4  0  0  0  0  0  0  0  0999 V2000
    0.0000   -0.6638    0.0000 C   0  0  0  0  0  0  0  0  0  0  0  0
    1.1525   -0.0000    0.0000 C   0  0  0  0  0  0  0  0  0  0  0  0
    2.3050   -0.6638    0.0000 C   0  0  0  0  0  0  0  0  0  0  0  0
    3.4575   -0.0000    0.0000 C   0  0  0  0  0  0  0  0  0  0  0  0
    4.6099   -0.6638    0.0000 O   0  0  0  0  0  0  0  0  0  0  0  0
  1  2  1  0  0  0  0 
  2  3  2  0  0  0  0 
  3  4  1  0  0  0  0 
  4  5  2  0  0  0  0 
M  END
> <Name>
TRANS-CROTONALDEHYDE

> <Source>
DSSTox2DMolFile

> <Tox>
1.477

> <CAS>
123-73-9

$$$$

  CDK

  5  5  0  0  0  0  0  0  0  0999 V2000
    1.2634    0.0044    0.0881 N   0  0  0  0  0  0  0  0  0  0  0  0
    0.4010    1.2007   -0.1123 C   0  0  0  0  0  0  0  0  0  0  0  0
    0.4095   -1.1978   -0.1126 C   0  0  0  0  0  0  0  0  0  0  0  0
   -1.0558    0.7603    0.0471 C   0  0  0  0  0  0  0  0  0  0  0  0
   -1.0503   -0.7678    0.0475 C   0  0  0  0  0  0  0  0  0  0  0  0
  1  2  1  0  0  0  0 
  1  3  1  0  0  0  0 
  2  4  1  0  0  0  0 
  5  3  1  0  0  0  0 
  4  5  1  0  0  0  0 
M  END
> <Name>
PYRROLIDINE

> <Source>
DougDB3DMolFile

> <Tox>
1.797

> <CAS>
123-75-1

$$$$

  CDK

  8  7  0  0  0  0  0  0  0  0999 V2000
    0.0000   -1.3312    0.0000 C   0  0  0  0  0  0  0  0  0  0  0  0
    1.1526   -1.9939    0.0000 C   0  0  0  0  0  0  0  0  0  0  0  0
    2.3051   -1.3312    0.0000 C   0  0  0  0  0  0  0  0  0  0  0  0
    1.1526   -3.3252    0.0000 O   0  0  0  0  0  0  0  0  0  0  0  0
    3.4577   -1.9939    0.0000 C   0  0  0  0  0  0  0  0  0  0  0  0
    4.6103   -1.3312    0.0000 C   0  0  0  0  0  0  0  0  0  0  0  0
    5.7628   -1.9939    0.0000 O   0  0  0  0  0  0  0  0  0  0  0  0
    4.6103   -0.0000    0.0000 O   0  0  0  0  0  0  0  0  0  0  0  0
  1  2  1  0  0  0  0 
  2  3  1  0  0  0  0 
  2  4  2  0  0  0  0 
  3  5  1  0  0  0  0 
  5  6  1  0  0  0  0 
  6  7  1  0  0  0  0 
  6  8  2  0  0  0  0 
M  END
> <Name>
LEVULINIC ACID

> <Source>
DSSTox2DMolFile

> <Tox>
-2.951

> <CAS>
123-76-2

$$$$

  CDK

  6  6  0  0  0  0  0  0  0  0999 V2000
    2.3036   -1.9950    0.0000 C   0  0  0  0  0  0  0  0  0  0  0  0
    1.1518   -2.6600    0.0000 C   0  0  0  0  0  0  0  0  0  0  0  0
    2.3036   -0.6650    0.0000 O   0  0  0  0  0  0  0  0  0  0  0  0
    0.0000   -1.9950    0.0000 O   0  0  0  0  0  0  0  0  0  0  0  0
    1.1518   -0.0000    0.0000 C   0  0  0  0  0  0  0  0  0  0  0  0
    0.0000   -0.6650    0.0000 C   0  0  0  0  0  0  0  0  0  0  0  0
  1  2  1  0  0  0  0 
  1  3  1  0  0  0  0 
  2  4  1  0  0  0  0 
  5  3  1  0  0  0  0 
  4  6  1  0  0  0  0 
  6  5  1  0  0  0  0 
M  END
> <Name>
1,4-DIOXANE

> <Source>
DSSTox2DMolFile

> <Tox>
1.581

> <CAS>
123-91-1

$$$$

  CDK

  9  8  0  0  0  0  0  0  0  0999 V2000
    3.4545   -1.3334    0.0000 C   0  0  0  0  0  0  0  0  0  0  0  0
    4.6083   -1.9967    0.0000 C   0  0  0  0  0  0  0  0  0  0  0  0
    2.3007   -1.9967    0.0000 O   0  0  0  0  0  0  0  0  0  0  0  0
    5.7552   -1.3334    0.0000 C   0  0  0  0  0  0  0  0  0  0  0  0
    1.1538   -1.3334    0.0000 C   0  0  0  0  0  0  0  0  0  0  0  0
    5.7552   -0.0000    0.0000 C   0  0  0  0  0  0  0  0  0  0  0  0
    6.9090   -1.9967    0.0000 C   0  0  0  0  0  0  0  0  0  0  0  0
    0.0000   -1.9967    0.0000 C   0  0  0  0  0  0  0  0  0  0  0  0
    1.1538   -0.0000    0.0000 O   0  0  0  0  0  0  0  0  0  0  0  0
  1  2  1  0  0  0  0 
  1  3  1  0  0  0  0 
  2  4  1  0  0  0  0 
  3  5  1  0  0  0  0 
  4  6  1  0  0  0  0 
  4  7  1  0  0  0  0 
  5  8  1  0  0  0  0 
  5  9  2  0  0  0  0 
M  END
> <Name>
ISOAMYL ACETATE

> <Source>
DSSTox2DMolFile

> <Tox>
0.748

> <CAS>
123-92-2

$$$$

  CDK

  9  8  0  0  0  0  0  0  0  0999 V2000
    0.0000   -0.0000    0.0000 C   0  0  0  0  0  0  0  0  0  0  0  0
    1.1411   -0.6750    0.0000 C   0  0  0  0  0  0  0  0  0  0  0  0
    2.2982   -0.0000    0.0000 C   0  0  0  0  0  0  0  0  0  0  0  0
    1.1411   -1.9929    0.0000 O   0  0  0  0  0  0  0  0  0  0  0  0
    3.4554   -0.6750    0.0000 C   0  0  0  0  0  0  0  0  0  0  0  0
    4.6126   -0.0000    0.0000 C   0  0  0  0  0  0  0  0  0  0  0  0
    5.7376   -0.6750    0.0000 C   0  0  0  0  0  0  0  0  0  0  0  0
    6.8947   -0.0000    0.0000 C   0  0  0  0  0  0  0  0  0  0  0  0
    8.0358   -0.6750    0.0000 C   0  0  0  0  0  0  0  0  0  0  0  0
  1  2  1  0  0  0  0 
  2  3  1  0  0  0  0 
  2  4  1  0  0  0  0 
  3  5  1  0  0  0  0 
  5  6  1  0  0  0  0 
  6  7  1  0  0  0  0 
  7  8  1  0  0  0  0 
  8  9  1  0  0  0  0 
M  END
> <Name>
2-OCTANOL

> <Source>
DSSTox2DMolFile

> <Tox>
-0.616

> <CAS>
123-96-6

$$$$

  CDK

 13 12  0  0  0  0  0  0  0  0999 V2000
    8.0673   -0.0000    0.0000 O   0  0  0  0  0  0  0  0  0  0  0  0
    9.2183   -0.6636    0.0000 C   0  0  0  0  0  0  0  0  0  0  0  0
   10.3693   -0.0000    0.0000 O   0  0  0  0  0  0  0  0  0  0  0  0
    9.2183   -2.0013    0.0000 C   0  0  0  0  0  0  0  0  0  0  0  0
    8.0673   -2.6649    0.0000 C   0  0  0  0  0  0  0  0  0  0  0  0
    6.9163   -2.0013    0.0000 C   0  0  0  0  0  0  0  0  0  0  0  0
    5.7653   -2.6649    0.0000 C   0  0  0  0  0  0  0  0  0  0  0  0
    4.6040   -2.0013    0.0000 C   0  0  0  0  0  0  0  0  0  0  0  0
    3.4530   -2.6649    0.0000 C   0  0  0  0  0  0  0  0  0  0  0  0
    2.3020   -2.0013    0.0000 C   0  0  0  0  0  0  0  0  0  0  0  0
    1.1510   -2.6649    0.0000 C   0  0  0  0  0  0  0  0  0  0  0  0
    0.0000   -2.0013    0.0000 O   0  0  0  0  0  0  0  0  0  0  0  0
    1.1510   -3.9922    0.0000 O   0  0  0  0  0  0  0  0  0  0  0  0
  1  2  2  0  0  0  0 
  2  3  1  0  0  0  0 
  2  4  1  0  0  0  0 
  4  5  1  0  0  0  0 
  5  6  1  0  0  0  0 
  6  7  1  0  0  0  0 
  7  8  1  0  0  0  0 
  8  9  1  0  0  0  0 
  9 10  1  0  0  0  0 
 10 11  1  0  0  0  0 
 11 12  1  0  0  0  0 
 11 13  2  0  0  0  0 
M  END
> <Name>
NONANEDIOC ACID

> <Source>
DSSTox2DMolFile

> <Tox>
-7.971

> <CAS>
123-99-9

$$$$

  CDK

  7  6  0  0  0  0  0  0  0  0999 V2000
    3.4575   -0.0000    0.0000 N   0  0  0  0  0  0  0  0  0  0  0  0
    2.3027   -0.6638    0.0000 C   0  0  0  0  0  0  0  0  0  0  0  0
    4.6122   -0.6638    0.0000 C   0  0  0  0  0  0  0  0  0  0  0  0
    1.1548   -0.0000    0.0000 C   0  0  0  0  0  0  0  0  0  0  0  0
    5.7601   -0.0000    0.0000 C   0  0  0  0  0  0  0  0  0  0  0  0
    0.0000   -0.6638    0.0000 C   0  0  0  0  0  0  0  0  0  0  0  0
    6.9149   -0.6638    0.0000 C   0  0  0  0  0  0  0  0  0  0  0  0
  1  2  1  0  0  0  0 
  1  3  1  0  0  0  0 
  2  4  1  0  0  0  0 
  3  5  1  0  0  0  0 
  4  6  2  0  0  0  0 
  5  7  2  0  0  0  0 
M  END
> <Name>
DIALLYLAMINE

> <Source>
DSSTox2DMolFile

> <Tox>
1.305

> <CAS>
124-02-7

$$$$

  CDK

 10  9  0  0  0  0  0  0  0  0999 V2000
    0.0000   -1.3318    0.0000 O   0  0  0  0  0  0  0  0  0  0  0  0
    1.1542   -1.9936    0.0000 C   0  0  0  0  0  0  0  0  0  0  0  0
    2.3084   -1.3318    0.0000 C   0  0  0  0  0  0  0  0  0  0  0  0
    1.1542   -3.3254    0.0000 O   0  0  0  0  0  0  0  0  0  0  0  0
    3.4626   -1.9936    0.0000 C   0  0  0  0  0  0  0  0  0  0  0  0
    4.6087   -1.3318    0.0000 C   0  0  0  0  0  0  0  0  0  0  0  0
    5.7629   -1.9936    0.0000 C   0  0  0  0  0  0  0  0  0  0  0  0
    6.9171   -1.3318    0.0000 C   0  0  0  0  0  0  0  0  0  0  0  0
    8.0713   -1.9936    0.0000 O   0  0  0  0  0  0  0  0  0  0  0  0
    6.9171   -0.0000    0.0000 O   0  0  0  0  0  0  0  0  0  0  0  0
  1  2  1  0  0  0  0 
  2  3  1  0  0  0  0 
  2  4  2  0  0  0  0 
  3  5  1  0  0  0  0 
  5  6  1  0  0  0  0 
  6  7  1  0  0  0  0 
  7  8  1  0  0  0  0 
  8  9  1  0  0  0  0 
  8 10  2  0  0  0  0 
M  END
> <Name>
HEXANEDIOIC ACID

> <Source>
DSSTox2DMolFile

> <Tox>
-6.498

> <CAS>
124-04-9

$$$$

  CDK

 10  9  0  0  0  0  0  0  0  0999 V2000
    1.2375    1.0207    0.0000 O   0  0  0  0  0  0  0  0  0  0  0  0
    1.6500    0.3062    0.0000 C   0  0  0  0  0  0  0  0  0  0  0  0
    1.2375   -0.4083    0.0000 O   0  0  0  0  0  0  0  0  0  0  0  0
    2.4750    0.3062    0.0000 Cl  0  0  0  0  0  0  0  0  0  0  0  0
    0.4125   -0.4083    0.0000 C   0  0  0  0  0  0  0  0  0  0  0  0
   -0.4125   -0.4083    0.0000 C   0  0  0  0  0  0  0  0  0  0  0  0
   -1.2375   -0.4083    0.0000 O   0  0  0  0  0  0  0  0  0  0  0  0
   -1.6500    0.3062    0.0000 C   0  0  0  0  0  0  0  0  0  0  0  0
   -1.2375    1.0207    0.0000 O   0  0  0  0  0  0  0  0  0  0  0  0
   -2.4750    0.3062    0.0000 Cl  0  0  0  0  0  0  0  0  0  0  0  0
  1  2  2  0  0  0  0 
  2  3  1  0  0  0  0 
  2  4  1  0  0  0  0 
  3  5  1  0  0  0  0 
  5  6  1  0  0  0  0 
  6  7  1  0  0  0  0 
  7  8  1  0  0  0  0 
  8  9  2  0  0  0  0 
  8 10  1  0  0  0  0 
M  END
> <Name>
Ethylene bis chloroformate

> <Source>
Smiles

> <Tox>
-1.666

> <CAS>
124-05-0

$$$$

  CDK

 10  9  0  0  0  0  0  0  0  0999 V2000
    0.0000   -1.9996    0.0000 C   0  0  0  0  0  0  0  0  0  0  0  0
    1.1518   -1.3361    0.0000 C   0  0  0  0  0  0  0  0  0  0  0  0
    2.3036   -1.9996    0.0000 C   0  0  0  0  0  0  0  0  0  0  0  0
    3.4555   -1.3361    0.0000 C   0  0  0  0  0  0  0  0  0  0  0  0
    4.6073   -1.9996    0.0000 C   0  0  0  0  0  0  0  0  0  0  0  0
    5.7591   -1.3361    0.0000 C   0  0  0  0  0  0  0  0  0  0  0  0
    6.9109   -1.9996    0.0000 C   0  0  0  0  0  0  0  0  0  0  0  0
    8.0628   -1.3361    0.0000 C   0  0  0  0  0  0  0  0  0  0  0  0
    9.2146   -1.9996    0.0000 O   0  0  0  0  0  0  0  0  0  0  0  0
    8.0628   -0.0000    0.0000 O   0  0  0  0  0  0  0  0  0  0  0  0
  1  2  1  0  0  0  0 
  2  3  1  0  0  0  0 
  3  4  1  0  0  0  0 
  4  5  1  0  0  0  0 
  5  6  1  0  0  0  0 
  6  7  1  0  0  0  0 
  7  8  1  0  0  0  0 
  8  9  1  0  0  0  0 
  8 10  2  0  0  0  0 
M  END
> <Name>
OCTANOIC ACID

> <Source>
DSSTox2DMolFile

> <Tox>
-2.431

> <CAS>
124-07-2

$$$$

  CDK

 17 16  0  0  0  0  0  0  0  0999 V2000
    2.3185   -1.3423    0.0000 C   0  0  0  0  0  0  0  0  0  0  0  0
    3.4865   -1.9873    0.0000 C   0  0  0  0  0  0  0  0  0  0  0  0
    1.1506   -1.9873    0.0000 O   0  0  0  0  0  0  0  0  0  0  0  0
    2.3185   -0.0000    0.0000 O   0  0  0  0  0  0  0  0  0  0  0  0
    4.6371   -1.3423    0.0000 C   0  0  0  0  0  0  0  0  0  0  0  0
    0.0000   -1.3423    0.0000 C   0  0  0  0  0  0  0  0  0  0  0  0
    5.8051   -1.9873    0.0000 C   0  0  0  0  0  0  0  0  0  0  0  0
    6.9731   -1.3423    0.0000 C   0  0  0  0  0  0  0  0  0  0  0  0
    8.1411   -1.9873    0.0000 C   0  0  0  0  0  0  0  0  0  0  0  0
    9.2916   -1.3423    0.0000 C   0  0  0  0  0  0  0  0  0  0  0  0
   10.4596   -1.9873    0.0000 C   0  0  0  0  0  0  0  0  0  0  0  0
   11.6276   -1.3423    0.0000 C   0  0  0  0  0  0  0  0  0  0  0  0
   12.7956   -1.9873    0.0000 C   0  0  0  0  0  0  0  0  0  0  0  0
   13.9462   -1.3423    0.0000 C   0  0  0  0  0  0  0  0  0  0  0  0
   15.1142   -1.9873    0.0000 C   0  0  0  0  0  0  0  0  0  0  0  0
   16.2821   -1.3423    0.0000 C   0  0  0  0  0  0  0  0  0  0  0  0
   17.4327   -1.9873    0.0000 C   0  0  0  0  0  0  0  0  0  0  0  0
  1  2  1  0  0  0  0 
  1  3  1  0  0  0  0 
  1  4  2  0  0  0  0 
  2  5  1  0  0  0  0 
  3  6  1  0  0  0  0 
  5  7  1  0  0  0  0 
  7  8  1  0  0  0  0 
  8  9  1  0  0  0  0 
  9 10  1  0  0  0  0 
 10 11  1  0  0  0  0 
 11 12  1  0  0  0  0 
 12 13  1  0  0  0  0 
 13 14  1  0  0  0  0 
 14 15  1  0  0  0  0 
 15 16  1  0  0  0  0 
 16 17  1  0  0  0  0 
M  END
> <Name>
METHYL MYRISTATE

> <Source>
DSSTox2DMolFile

> <Tox>
-3.310

> <CAS>
124-10-7

$$$$

  CDK

  9  8  0  0  0  0  0  0  0  0999 V2000
    4.3394    0.4988    0.0000 C   0  0  0  0  0  0  0  0  0  0  0  0
    3.4915    0.0000    0.0000 C   0  0  0  0  0  0  0  0  0  0  0  0
    5.2373    0.0000    0.0000 C   0  0  0  0  0  0  0  0  0  0  0  0
    2.6436    0.4988    0.0000 C   0  0  0  0  0  0  0  0  0  0  0  0
    6.0852    0.4988    0.0000 C   0  0  0  0  0  0  0  0  0  0  0  0
    1.7458    0.0000    0.0000 C   0  0  0  0  0  0  0  0  0  0  0  0
    6.9331    0.0000    0.0000 C   0  0  0  0  0  0  0  0  0  0  0  0
    0.8479    0.4988    0.0000 C   0  0  0  0  0  0  0  0  0  0  0  0
    0.0000    0.9976    0.0000 N   0  0  0  0  0  0  0  0  0  0  0  0
  1  2  1  0  0  0  0 
  1  3  1  0  0  0  0 
  2  4  1  0  0  0  0 
  3  5  1  0  0  0  0 
  4  6  1  0  0  0  0 
  5  7  1  0  0  0  0 
  6  8  1  0  0  0  0 
  8  9  3  0  0  0  0 
M  END
> <Name>
OCTANONITRILE

> <Source>
NIST2DMolFile

> <Tox>
-0.409

> <CAS>
124-12-9

$$$$

  CDK

  9  8  0  0  0  0  0  0  0  0999 V2000
    0.0000   -0.6638    0.0000 C   0  0  0  0  0  0  0  0  0  0  0  0
    1.1525   -0.0000    0.0000 C   0  0  0  0  0  0  0  0  0  0  0  0
    2.3050   -0.6638    0.0000 C   0  0  0  0  0  0  0  0  0  0  0  0
    3.4575   -0.0000    0.0000 C   0  0  0  0  0  0  0  0  0  0  0  0
    4.6099   -0.6638    0.0000 C   0  0  0  0  0  0  0  0  0  0  0  0
    5.7624   -0.0000    0.0000 C   0  0  0  0  0  0  0  0  0  0  0  0
    6.9149   -0.6638    0.0000 C   0  0  0  0  0  0  0  0  0  0  0  0
    8.0674   -0.0000    0.0000 C   0  0  0  0  0  0  0  0  0  0  0  0
    9.2199   -0.6638    0.0000 O   0  0  0  0  0  0  0  0  0  0  0  0
  1  2  1  0  0  0  0 
  2  3  1  0  0  0  0 
  3  4  1  0  0  0  0 
  4  5  1  0  0  0  0 
  5  6  1  0  0  0  0 
  6  7  1  0  0  0  0 
  7  8  1  0  0  0  0 
  8  9  2  0  0  0  0 
M  END
> <Name>
OCTANAL

> <Source>
DSSTox2DMolFile

> <Tox>
0.072

> <CAS>
124-13-0

$$$$

  CDK

 10  9  0  0  0  0  0  0  0  0999 V2000
    1.1513   -0.0000    0.0000 C   0  0  0  0  0  0  0  0  0  0  0  0
    2.3027   -0.6638    0.0000 C   0  0  0  0  0  0  0  0  0  0  0  0
    0.0000   -0.6638    0.0000 C   0  0  0  0  0  0  0  0  0  0  0  0
    3.4540   -0.0000    0.0000 C   0  0  0  0  0  0  0  0  0  0  0  0
    4.6053   -0.6638    0.0000 C   0  0  0  0  0  0  0  0  0  0  0  0
    5.7670   -0.0000    0.0000 C   0  0  0  0  0  0  0  0  0  0  0  0
    6.9184   -0.6638    0.0000 C   0  0  0  0  0  0  0  0  0  0  0  0
    8.0697   -0.0000    0.0000 C   0  0  0  0  0  0  0  0  0  0  0  0
    9.2210   -0.6638    0.0000 C   0  0  0  0  0  0  0  0  0  0  0  0
   10.3724   -0.0000    0.0000 C   0  0  0  0  0  0  0  0  0  0  0  0
  1  2  1  0  0  0  0 
  1  3  1  0  0  0  0 
  2  4  1  0  0  0  0 
  4  5  1  0  0  0  0 
  5  6  1  0  0  0  0 
  6  7  1  0  0  0  0 
  7  8  1  0  0  0  0 
  8  9  1  0  0  0  0 
  9 10  1  0  0  0  0 
M  END
> <Name>
N-DECANE

> <Source>
DSSTox2DMolFile

> <Tox>
0.155

> <CAS>
124-18-5

$$$$

  CDK

  3  2  0  0  0  0  0  0  0  0999 V2000
    1.3300   -0.0000    0.0000 C   0  0  0  0  0  0  0  0  0  0  0  0
    2.6600   -0.0000    0.0000 O   0  0  0  0  0  0  0  0  0  0  0  0
    0.0000   -0.0000    0.0000 O   0  0  0  0  0  0  0  0  0  0  0  0
  1  2  2  0  0  0  0 
  1  3  2  0  0  0  0 
M  END
> <Name>
CARBON DIOXIDE

> <Source>
DSSTox2DMolFile

> <Tox>
4.684

> <CAS>
124-38-9

$$$$

  CDK

  3  2  0  0  0  0  0  0  0  0999 V2000
    1.9960   -0.0000    0.0000 C   0  0  0  0  0  0  0  0  0  0  0  0
    1.3293   -1.1517    0.0000 N   0  0  0  0  0  0  0  0  0  0  0  0
    0.0000   -1.1517    0.0000 C   0  0  0  0  0  0  0  0  0  0  0  0
  1  2  1  0  0  0  0 
  3  2  1  0  0  0  0 
M  END
> <Name>
DIMETHYLAMINE

> <Source>
DSSTox2DMolFile

> <Tox>
3.182

> <CAS>
124-40-3

$$$$

  CDK

  8  7  0  0  0  0  0  0  0  0999 V2000
    1.9927    1.0219    0.0000 C   0  0  0  0  0  0  0  0  0  0  0  0
    1.0219    1.0219    0.0000 C   0  0  0  0  0  0  0  0  0  0  0  0
    1.9927    2.0438    0.0000 Br  0  0  0  0  0  0  0  0  0  0  0  0
    1.9927    0.0511    0.0000 F   0  0  0  0  0  0  0  0  0  0  0  0
    2.9635    1.0219    0.0000 F   0  0  0  0  0  0  0  0  0  0  0  0
    0.0000    1.0219    0.0000 F   0  0  0  0  0  0  0  0  0  0  0  0
    1.0219    0.0000    0.0000 F   0  0  0  0  0  0  0  0  0  0  0  0
    1.0219    2.0438    0.0000 Br  0  0  0  0  0  0  0  0  0  0  0  0
  1  2  1  0  0  0  0 
  1  3  1  0  0  0  0 
  1  4  1  0  0  0  0 
  1  5  1  0  0  0  0 
  2  6  1  0  0  0  0 
  2  7  1  0  0  0  0 
  2  8  1  0  0  0  0 
M  END
> <Name>
1,2-DIBROMOTETRAFLUOROETHANE

> <Source>
NIST2DMolFile

> <Tox>
2.512

> <CAS>
124-73-2

$$$$

  CDK

 17 16  0  0  0  0  0  0  0  0999 V2000
    9.9273   -3.3256    0.0000 C   0  0  0  0  0  0  0  0  0  0  0  0
    8.7757   -3.9908    0.0000 C   0  0  0  0  0  0  0  0  0  0  0  0
    7.6241   -3.3256    0.0000 C   0  0  0  0  0  0  0  0  0  0  0  0
    6.4726   -3.9908    0.0000 C   0  0  0  0  0  0  0  0  0  0  0  0
    5.3210   -3.3256    0.0000 O   0  0  0  0  0  0  0  0  0  0  0  0
    5.3210   -1.9954    0.0000 P   0  0  0  0  0  0  0  0  0  0  0  0
    6.6513   -1.9954    0.0000 O   0  0  0  0  0  0  0  0  0  0  0  0
    3.9908   -1.9954    0.0000 O   0  0  0  0  0  0  0  0  0  0  0  0
    5.3210   -0.6651    0.0000 O   0  0  0  0  0  0  0  0  0  0  0  0
    3.3256   -3.1469    0.0000 C   0  0  0  0  0  0  0  0  0  0  0  0
    6.4726   -0.0000    0.0000 C   0  0  0  0  0  0  0  0  0  0  0  0
    1.9954   -3.1469    0.0000 C   0  0  0  0  0  0  0  0  0  0  0  0
    7.6241   -0.6651    0.0000 C   0  0  0  0  0  0  0  0  0  0  0  0
    1.3303   -4.2985    0.0000 C   0  0  0  0  0  0  0  0  0  0  0  0
    8.7757   -0.0000    0.0000 C   0  0  0  0  0  0  0  0  0  0  0  0
    0.0000   -4.2985    0.0000 C   0  0  0  0  0  0  0  0  0  0  0  0
    9.9273   -0.6651    0.0000 C   0  0  0  0  0  0  0  0  0  0  0  0
  1  2  1  0  0  0  0 
  2  3  1  0  0  0  0 
  3  4  1  0  0  0  0 
  4  5  1  0  0  0  0 
  5  6  1  0  0  0  0 
  6  7  2  0  0  0  0 
  6  8  1  0  0  0  0 
  6  9  1  0  0  0  0 
  8 10  1  0  0  0  0 
  9 11  1  0  0  0  0 
 10 12  1  0  0  0  0 
 11 13  1  0  0  0  0 
 12 14  1  0  0  0  0 
 13 15  1  0  0  0  0 
 14 16  1  0  0  0  0 
 15 17  1  0  0  0  0 
M  END
> <Name>
TRIBUTYLPHOSPHATE

> <Source>
DSSTox2DMolFile

> <Tox>
-2.947

> <CAS>
126-73-8

$$$$

  CDK

  5  4  0  0  0  0  0  0  0  0999 V2000
    2.2415   -0.6520    0.0000 C   0  0  0  0  0  0  0  0  0  0  0  0
    1.1191   -0.0000    0.0000 C   0  0  0  0  0  0  0  0  0  0  0  0
    3.3606   -0.0000    0.0000 C   0  0  0  0  0  0  0  0  0  0  0  0
    2.2415   -2.0836    0.0000 Cl  0  0  0  0  0  0  0  0  0  0  0  0
    0.0000   -0.6520    0.0000 C   0  0  0  0  0  0  0  0  0  0  0  0
  1  2  1  0  0  0  0 
  1  3  2  0  0  0  0 
  1  4  1  0  0  0  0 
  2  5  2  0  0  0  0 
M  END
> <Name>
CHLOROPRENE

> <Source>
DSSTox2DMolFile

> <Tox>
2.334

> <CAS>
126-99-8

$$$$

  CDK

  6  5  0  0  0  0  0  0  0  0999 V2000
    1.3307   -0.0000    0.0000 C   0  0  0  0  0  0  0  0  0  0  0  0
    1.9943   -1.1509    0.0000 C   0  0  0  0  0  0  0  0  0  0  0  0
    1.3307   -2.3053    0.0000 C   0  0  0  0  0  0  0  0  0  0  0  0
    3.3250   -1.1509    0.0000 O   0  0  0  0  0  0  0  0  0  0  0  0
    1.9943   -3.4563    0.0000 O   0  0  0  0  0  0  0  0  0  0  0  0
    0.0000   -2.3053    0.0000 O   0  0  0  0  0  0  0  0  0  0  0  0
  1  2  1  0  0  0  0 
  2  3  1  0  0  0  0 
  2  4  2  0  0  0  0 
  3  5  1  0  0  0  0 
  3  6  2  0  0  0  0 
M  END
> <Name>
PYRUVIC ACID

> <Source>
DSSTox2DMolFile

> <Tox>
0.111

> <CAS>
127-17-3

$$$$

  CDK

  6  5  0  0  0  0  0  0  0  0999 V2000
    1.3307   -0.0000    0.0000 Cl  0  0  0  0  0  0  0  0  0  0  0  0
    1.9943   -1.1509    0.0000 C   0  0  0  0  0  0  0  0  0  0  0  0
    1.3307   -2.3053    0.0000 C   0  0  0  0  0  0  0  0  0  0  0  0
    3.3250   -1.1509    0.0000 Cl  0  0  0  0  0  0  0  0  0  0  0  0
    1.9943   -3.4563    0.0000 Cl  0  0  0  0  0  0  0  0  0  0  0  0
    0.0000   -2.3053    0.0000 Cl  0  0  0  0  0  0  0  0  0  0  0  0
  1  2  1  0  0  0  0 
  2  3  2  0  0  0  0 
  2  4  1  0  0  0  0 
  3  5  1  0  0  0  0 
  3  6  1  0  0  0  0 
M  END
> <Name>
TETRACHLOROETHENE

> <Source>
DSSTox2DMolFile

> <Tox>
1.267

> <CAS>
127-18-4

$$$$

  CDK

  6  5  0  0  0  0  0  0  0  0999 V2000
    2.3053   -1.3272    0.0000 C   0  0  0  0  0  0  0  0  0  0  0  0
    1.1509   -2.0012    0.0000 N   0  0  0  0  0  0  0  0  0  0  0  0
    2.3053   -0.0000    0.0000 O   0  0  0  0  0  0  0  0  0  0  0  0
    3.4563   -2.0012    0.0000 C   0  0  0  0  0  0  0  0  0  0  0  0
    1.1509   -3.3284    0.0000 C   0  0  0  0  0  0  0  0  0  0  0  0
    0.0000   -1.3445    0.0000 C   0  0  0  0  0  0  0  0  0  0  0  0
  1  2  1  0  0  0  0 
  1  3  2  0  0  0  0 
  1  4  1  0  0  0  0 
  2  5  1  0  0  0  0 
  2  6  1  0  0  0  0 
M  END
> <Name>
N,N'-DIMETHYLACETAMIDE

> <Source>
DSSTox2DMolFile

> <Tox>
0.301

> <CAS>
127-19-5

$$$$

  CDK

 14 14  0  0  0  0  0  0  0  0999 V2000
    1.1564   -4.0024    0.0000 C   0  0  0  0  0  0  0  0  0  0  0  0
    1.1564   -2.6659    0.0000 C   0  0  0  0  0  0  0  0  0  0  0  0
    2.2989   -2.0081    0.0000 C   0  0  0  0  0  0  0  0  0  0  0  0
    0.0000   -2.0081    0.0000 O   0  0  0  0  0  0  0  0  0  0  0  0
    3.4553   -2.6659    0.0000 C   0  0  0  0  0  0  0  0  0  0  0  0
    4.6117   -2.0081    0.0000 C   0  0  0  0  0  0  0  0  0  0  0  0
    4.6117   -0.6786    0.0000 C   0  0  0  0  0  0  0  0  0  0  0  0
    5.7681   -2.6867    0.0000 C   0  0  0  0  0  0  0  0  0  0  0  0
    5.7681   -0.0208    0.0000 C   0  0  0  0  0  0  0  0  0  0  0  0
    3.4553   -0.0000    0.0000 C   0  0  0  0  0  0  0  0  0  0  0  0
    6.9245   -2.0081    0.0000 C   0  0  0  0  0  0  0  0  0  0  0  0
    6.4398   -3.8223    0.0000 C   0  0  0  0  0  0  0  0  0  0  0  0
    5.1103   -3.8223    0.0000 C   0  0  0  0  0  0  0  0  0  0  0  0
    6.9245   -0.6786    0.0000 C   0  0  0  0  0  0  0  0  0  0  0  0
  1  2  1  0  0  0  0 
  2  3  1  0  0  0  0 
  2  4  2  0  0  0  0 
  3  5  2  0  0  0  0 
  5  6  1  0  0  0  0 
  6  7  1  0  0  0  0 
  6  8  1  0  0  0  0 
  7  9  2  0  0  0  0 
  7 10  1  0  0  0  0 
 11  8  1  0  0  0  0 
  8 12  1  0  0  0  0 
  8 13  1  0  0  0  0 
  9 14  1  0  0  0  0 
 14 11  1  0  0  0  0 
M  END
> <Name>
ALPHA-IONONE

> <Source>
DSSTox2DMolFile

> <Tox>
-1.762

> <CAS>
127-41-3

$$$$

  CDK

 10 11  0  0  0  0  0  0  0  0999 V2000
    0.0000   -0.9219    0.0000 C   0  0  0  0  0  0  0  0  0  0  0  0
    1.5033   -1.2671    0.0000 C   0  0  0  0  0  0  0  0  0  0  0  0
    0.8720   -2.0301    0.0000 C   0  0  0  0  0  0  0  0  0  0  0  0
    2.8657   -0.9219    0.0000 C   0  0  0  0  0  0  0  0  0  0  0  0
    2.2980   -1.7667    0.0000 C   0  0  0  0  0  0  0  0  0  0  0  0
    0.4496   -2.9702    0.0000 C   0  0  0  0  0  0  0  0  0  0  0  0
    3.7377   -2.2435    0.0000 C   0  0  0  0  0  0  0  0  0  0  0  0
    2.5478   -0.0000    0.0000 C   0  0  0  0  0  0  0  0  0  0  0  0
    3.7513   -3.2336    0.0000 C   0  0  0  0  0  0  0  0  0  0  0  0
    4.5416   -1.7530    0.0000 C   0  0  0  0  0  0  0  0  0  0  0  0
  1  2  1  0  0  0  0 
  1  3  1  0  0  0  0 
  2  4  1  0  0  0  0 
  5  3  1  0  0  0  0 
  3  6  2  0  0  0  0 
  4  7  1  0  0  0  0 
  4  8  1  0  0  0  0 
  7  5  1  0  0  0  0 
  5  8  1  0  0  0  0 
  7  9  1  0  0  0  0 
  7 10  1  0  0  0  0 
M  END
> <Name>
beta-PINENE

> <Source>
DSSTox2DMolFile

> <Tox>
0.467

> <CAS>
127-91-3

$$$$

  CDK

 16 16  0  0  0  0  0  0  0  0999 V2000
    3.8114   -1.1518    0.0000 O   0  0  0  0  0  0  0  0  0  0  0  0
    3.1449   -2.3037    0.0000 C   0  0  0  0  0  0  0  0  0  0  0  0
    3.8114   -3.4555    0.0000 C   0  0  0  0  0  0  0  0  0  0  0  0
    1.8183   -2.3037    0.0000 C   0  0  0  0  0  0  0  0  0  0  0  0
    3.1449   -4.6073    0.0000 C   0  0  0  0  0  0  0  0  0  0  0  0
    5.1380   -3.4555    0.0000 C   0  0  0  0  0  0  0  0  0  0  0  0
    1.1518   -3.4555    0.0000 C   0  0  0  0  0  0  0  0  0  0  0  0
    1.1518   -1.1518    0.0000 C   0  0  0  0  0  0  0  0  0  0  0  0
    1.8183   -4.6073    0.0000 C   0  0  0  0  0  0  0  0  0  0  0  0
    5.1380   -2.1290    0.0000 C   0  0  0  0  0  0  0  0  0  0  0  0
    6.4710   -3.4555    0.0000 C   0  0  0  0  0  0  0  0  0  0  0  0
    5.1380   -4.7885    0.0000 C   0  0  0  0  0  0  0  0  0  0  0  0
    0.4853   -0.0000    0.0000 C   0  0  0  0  0  0  0  0  0  0  0  0
    2.3037   -0.4853    0.0000 C   0  0  0  0  0  0  0  0  0  0  0  0
    0.0000   -1.8183    0.0000 C   0  0  0  0  0  0  0  0  0  0  0  0
    1.1518   -5.7592    0.0000 C   0  0  0  0  0  0  0  0  0  0  0  0
  1  2  1  0  0  0  0 
  2  3  2  0  0  0  0 
  2  4  1  0  0  0  0 
  3  5  1  0  0  0  0 
  3  6  1  0  0  0  0 
  7  4  2  0  0  0  0 
  4  8  1  0  0  0  0 
  5  9  2  0  0  0  0 
  6 10  1  0  0  0  0 
  6 11  1  0  0  0  0 
  6 12  1  0  0  0  0 
  9  7  1  0  0  0  0 
  8 13  1  0  0  0  0 
  8 14  1  0  0  0  0 
  8 15  1  0  0  0  0 
  9 16  1  0  0  0  0 
M  END
> <Name>
2,6-DI-T-BUTYL-4-METHYLPHENOL (BHT)

> <Source>
DSSTox2DMolFile

> <Tox>
-2.287

> <CAS>
128-37-0

$$$$

  CDK

 16 19  0  0  0  0  0  0  0  0999 V2000
    2.3045   -2.6510    0.0000 C   0  0  0  0  0  0  0  0  0  0  0  0
    3.4711   -2.0041    0.0000 C   0  0  0  0  0  0  0  0  0  0  0  0
    2.3045   -3.9794    0.0000 C   0  0  0  0  0  0  0  0  0  0  0  0
    1.1551   -2.0041    0.0000 C   0  0  0  0  0  0  0  0  0  0  0  0
    4.6205   -2.6626    0.0000 C   0  0  0  0  0  0  0  0  0  0  0  0
    3.4711   -0.6584    0.0000 C   0  0  0  0  0  0  0  0  0  0  0  0
    3.4596   -4.6378    0.0000 C   0  0  0  0  0  0  0  0  0  0  0  0
    1.1551   -4.6378    0.0000 C   0  0  0  0  0  0  0  0  0  0  0  0
    1.1551   -0.6584    0.0000 C   0  0  0  0  0  0  0  0  0  0  0  0
    0.0000   -2.6626    0.0000 C   0  0  0  0  0  0  0  0  0  0  0  0
    5.7756   -2.0157    0.0000 C   0  0  0  0  0  0  0  0  0  0  0  0
    4.6205   -3.9910    0.0000 C   0  0  0  0  0  0  0  0  0  0  0  0
    4.6205   -0.0000    0.0000 C   0  0  0  0  0  0  0  0  0  0  0  0
    2.3160   -0.0000    0.0000 C   0  0  0  0  0  0  0  0  0  0  0  0
    0.0000   -3.9679    0.0000 C   0  0  0  0  0  0  0  0  0  0  0  0
    5.7756   -0.6757    0.0000 C   0  0  0  0  0  0  0  0  0  0  0  0
  1  2  1  0  0  0  0 
  1  3  1  0  0  0  0 
  1  4  2  0  0  0  0 
  2  5  1  0  0  0  0 
  2  6  2  0  0  0  0 
  3  7  1  0  0  0  0 
  3  8  2  0  0  0  0 
  4  9  1  0  0  0  0 
  4 10  1  0  0  0  0 
  5 11  2  0  0  0  0 
  5 12  1  0  0  0  0 
  6 13  1  0  0  0  0 
  6 14  1  0  0  0  0 
 12  7  2  0  0  0  0 
 15  8  1  0  0  0  0 
  9 14  2  0  0  0  0 
 15 10  2  0  0  0  0 
 16 11  1  0  0  0  0 
 16 13  2  0  0  0  0 
M  END
> <Name>
PYRENE

> <Source>
DSSTox2DMolFile

> <Tox>
-5.347

> <CAS>
129-00-0

$$$$

  CDK

 17 19  0  0  0  0  0  0  0  0999 V2000
    0.0000   -4.6546    0.0000 O   0  0  0  0  0  0  0  0  0  0  0  0
    1.1504   -3.9897    0.0000 C   0  0  0  0  0  0  0  0  0  0  0  0
    2.3007   -4.6546    0.0000 C   0  0  0  0  0  0  0  0  0  0  0  0
    1.1504   -2.6598    0.0000 C   0  0  0  0  0  0  0  0  0  0  0  0
    2.3007   -5.9845    0.0000 C   0  0  0  0  0  0  0  0  0  0  0  0
    3.4577   -3.9897    0.0000 C   0  0  0  0  0  0  0  0  0  0  0  0
    2.3007   -1.9948    0.0000 C   0  0  0  0  0  0  0  0  0  0  0  0
    0.0000   -1.9948    0.0000 C   0  0  0  0  0  0  0  0  0  0  0  0
    3.4577   -6.6495    0.0000 C   0  0  0  0  0  0  0  0  0  0  0  0
    1.1504   -6.6495    0.0000 O   0  0  0  0  0  0  0  0  0  0  0  0
    4.6081   -4.6546    0.0000 C   0  0  0  0  0  0  0  0  0  0  0  0
    3.4577   -2.6598    0.0000 C   0  0  0  0  0  0  0  0  0  0  0  0
    2.3007   -0.6649    0.0000 C   0  0  0  0  0  0  0  0  0  0  0  0
    0.0000   -0.6649    0.0000 C   0  0  0  0  0  0  0  0  0  0  0  0
    4.6081   -5.9845    0.0000 C   0  0  0  0  0  0  0  0  0  0  0  0
    4.6081   -1.9948    0.0000 O   0  0  0  0  0  0  0  0  0  0  0  0
    1.1504   -0.0000    0.0000 C   0  0  0  0  0  0  0  0  0  0  0  0
  1  2  2  0  0  0  0 
  2  3  1  0  0  0  0 
  2  4  1  0  0  0  0 
  3  5  2  0  0  0  0 
  3  6  1  0  0  0  0 
  7  4  2  0  0  0  0 
  4  8  1  0  0  0  0 
  5  9  1  0  0  0  0 
  5 10  1  0  0  0  0 
 11  6  2  0  0  0  0 
  6 12  1  0  0  0  0 
 12  7  1  0  0  0  0 
  7 13  1  0  0  0  0 
  8 14  2  0  0  0  0 
  9 15  2  0  0  0  0 
 15 11  1  0  0  0  0 
 12 16  2  0  0  0  0 
 17 13  2  0  0  0  0 
 14 17  1  0  0  0  0 
M  END
> <Name>
1-HYDROXYANTHRAQUINONE

> <Source>
DSSTox2DMolFile

> <Tox>
-6.680

> <CAS>
129-43-1

$$$$

  CDK

 14 14  0  0  0  0  0  0  0  0999 V2000
    2.6608   -2.3037    0.0000 C   0  0  0  0  0  0  0  0  0  0  0  0
    1.9927   -3.4556    0.0000 C   0  0  0  0  0  0  0  0  0  0  0  0
    1.9927   -1.1519    0.0000 C   0  0  0  0  0  0  0  0  0  0  0  0
    3.9912   -2.3037    0.0000 C   0  0  0  0  0  0  0  0  0  0  0  0
    2.6608   -4.6074    0.0000 C   0  0  0  0  0  0  0  0  0  0  0  0
    0.6623   -3.4556    0.0000 C   0  0  0  0  0  0  0  0  0  0  0  0
    0.6623   -1.1519    0.0000 C   0  0  0  0  0  0  0  0  0  0  0  0
    4.6535   -3.4556    0.0000 O   0  0  0  0  0  0  0  0  0  0  0  0
    4.6535   -1.1519    0.0000 O   0  0  0  0  0  0  0  0  0  0  0  0
    1.9927   -5.7593    0.0000 O   0  0  0  0  0  0  0  0  0  0  0  0
    3.9912   -4.6074    0.0000 O   0  0  0  0  0  0  0  0  0  0  0  0
    0.0000   -2.3037    0.0000 C   0  0  0  0  0  0  0  0  0  0  0  0
    3.9912   -0.0000    0.0000 C   0  0  0  0  0  0  0  0  0  0  0  0
    4.6535   -5.7593    0.0000 C   0  0  0  0  0  0  0  0  0  0  0  0
  1  2  2  0  0  0  0 
  1  3  1  0  0  0  0 
  1  4  1  0  0  0  0 
  2  5  1  0  0  0  0 
  2  6  1  0  0  0  0 
  7  3  2  0  0  0  0 
  4  8  2  0  0  0  0 
  4  9  1  0  0  0  0 
  5 10  2  0  0  0  0 
  5 11  1  0  0  0  0 
  6 12  2  0  0  0  0 
 12  7  1  0  0  0  0 
  9 13  1  0  0  0  0 
 11 14  1  0  0  0  0 
M  END
> <Name>
DIMETHYL PHTHALATE

> <Source>
DSSTox2DMolFile

> <Tox>
-2.511

> <CAS>
131-11-3

$$$$

  CDK

 18 18  0  0  0  0  0  0  0  0999 V2000
    2.2884   -1.9983    0.0000 C   0  0  0  0  0  0  0  0  0  0  0  0
    2.2884   -3.3278    0.0000 C   0  0  0  0  0  0  0  0  0  0  0  0
    3.4406   -1.3295    0.0000 C   0  0  0  0  0  0  0  0  0  0  0  0
    1.1361   -1.3295    0.0000 C   0  0  0  0  0  0  0  0  0  0  0  0
    3.4406   -3.9885    0.0000 C   0  0  0  0  0  0  0  0  0  0  0  0
    1.1361   -3.9885    0.0000 C   0  0  0  0  0  0  0  0  0  0  0  0
    3.4406   -0.0000    0.0000 O   0  0  0  0  0  0  0  0  0  0  0  0
    4.6009   -1.9983    0.0000 O   0  0  0  0  0  0  0  0  0  0  0  0
    0.0000   -1.9983    0.0000 C   0  0  0  0  0  0  0  0  0  0  0  0
    4.6009   -3.3278    0.0000 O   0  0  0  0  0  0  0  0  0  0  0  0
    3.4406   -5.3181    0.0000 O   0  0  0  0  0  0  0  0  0  0  0  0
    0.0000   -3.3278    0.0000 C   0  0  0  0  0  0  0  0  0  0  0  0
    5.7532   -1.3295    0.0000 C   0  0  0  0  0  0  0  0  0  0  0  0
    4.6009   -5.9868    0.0000 C   0  0  0  0  0  0  0  0  0  0  0  0
    6.9054   -1.9983    0.0000 C   0  0  0  0  0  0  0  0  0  0  0  0
    4.6009   -7.3163    0.0000 C   0  0  0  0  0  0  0  0  0  0  0  0
    8.0577   -1.3295    0.0000 C   0  0  0  0  0  0  0  0  0  0  0  0
    5.7532   -7.9771    0.0000 C   0  0  0  0  0  0  0  0  0  0  0  0
  1  2  2  0  0  0  0 
  1  3  1  0  0  0  0 
  1  4  1  0  0  0  0 
  2  5  1  0  0  0  0 
  2  6  1  0  0  0  0 
  3  7  2  0  0  0  0 
  3  8  1  0  0  0  0 
  4  9  2  0  0  0  0 
  5 10  2  0  0  0  0 
  5 11  1  0  0  0  0 
  6 12  2  0  0  0  0 
  8 13  1  0  0  0  0 
  9 12  1  0  0  0  0 
 11 14  1  0  0  0  0 
 13 15  1  0  0  0  0 
 14 16  1  0  0  0  0 
 15 17  1  0  0  0  0 
 16 18  1  0  0  0  0 
M  END
> <Name>
DIPROPYL PHTHALATE

> <Source>
DSSTox2DMolFile

> <Tox>
-3.879

> <CAS>
131-16-8

$$$$

  CDK

 13 15  0  0  0  0  0  0  0  0999 V2000
    5.3180   -0.0000    0.0000 C   0  0  0  0  0  0  0  0  0  0  0  0
    6.3919   -0.7798    0.0000 C   0  0  0  0  0  0  0  0  0  0  0  0
    4.1036   -0.5433    0.0000 C   0  0  0  0  0  0  0  0  0  0  0  0
    6.2512   -2.1029    0.0000 C   0  0  0  0  0  0  0  0  0  0  0  0
    3.9630   -1.8664    0.0000 C   0  0  0  0  0  0  0  0  0  0  0  0
    2.8827   -0.0000    0.0000 O   0  0  0  0  0  0  0  0  0  0  0  0
    5.0368   -2.6462    0.0000 C   0  0  0  0  0  0  0  0  0  0  0  0
    2.6590   -2.1413    0.0000 C   0  0  0  0  0  0  0  0  0  0  0  0
    1.9943   -0.9907    0.0000 C   0  0  0  0  0  0  0  0  0  0  0  0
    1.9943   -3.2918    0.0000 C   0  0  0  0  0  0  0  0  0  0  0  0
    0.6648   -0.9907    0.0000 C   0  0  0  0  0  0  0  0  0  0  0  0
    0.6648   -3.2918    0.0000 C   0  0  0  0  0  0  0  0  0  0  0  0
    0.0000   -2.1413    0.0000 C   0  0  0  0  0  0  0  0  0  0  0  0
  1  2  2  0  0  0  0 
  1  3  1  0  0  0  0 
  2  4  1  0  0  0  0 
  5  3  2  0  0  0  0 
  6  3  1  0  0  0  0 
  4  7  2  0  0  0  0 
  7  5  1  0  0  0  0 
  5  8  1  0  0  0  0 
  9  6  1  0  0  0  0 
  8 10  2  0  0  0  0 
  8  9  1  0  0  0  0 
 11  9  2  0  0  0  0 
 10 12  1  0  0  0  0 
 13 11  1  0  0  0  0 
 12 13  2  0  0  0  0 
M  END
> <Name>
DIBENZOFURAN

> <Source>
DSSTox2DMolFile

> <Tox>
-2.606

> <CAS>
132-64-9

$$$$

  CDK

 13 15  0  0  0  0  0  0  0  0999 V2000
   -1.2562    0.7159    0.0000 C   0  0  0  0  0  0  0  0  0  0  0  0
   -0.7276   -0.5941    0.0000 C   0  0  0  0  0  0  0  0  0  0  0  0
    0.0000    1.9448    0.0000 S   0  0  0  0  0  0  0  0  0  0  0  0
   -2.6334    0.9170    0.0000 C   0  0  0  0  0  0  0  0  0  0  0  0
    0.7276   -0.5941    0.0000 C   0  0  0  0  0  0  0  0  0  0  0  0
   -1.5805   -1.6956    0.0000 C   0  0  0  0  0  0  0  0  0  0  0  0
    1.2562    0.7159    0.0000 C   0  0  0  0  0  0  0  0  0  0  0  0
   -3.4741   -0.1892    0.0000 C   0  0  0  0  0  0  0  0  0  0  0  0
    1.5804   -1.6956    0.0000 C   0  0  0  0  0  0  0  0  0  0  0  0
   -2.9531   -1.4840    0.0000 C   0  0  0  0  0  0  0  0  0  0  0  0
    2.6334    0.9169    0.0000 C   0  0  0  0  0  0  0  0  0  0  0  0
    2.9531   -1.4840    0.0000 C   0  0  0  0  0  0  0  0  0  0  0  0
    3.4742   -0.1892    0.0000 C   0  0  0  0  0  0  0  0  0  0  0  0
  1  2  2  0  0  0  0 
  1  3  1  0  0  0  0 
  1  4  1  0  0  0  0 
  2  5  1  0  0  0  0 
  2  6  1  0  0  0  0 
  7  3  1  0  0  0  0 
  8  4  2  0  0  0  0 
  5  7  1  0  0  0  0 
  5  9  2  0  0  0  0 
  6 10  2  0  0  0  0 
  7 11  2  0  0  0  0 
 10  8  1  0  0  0  0 
 12  9  1  0  0  0  0 
 11 13  1  0  0  0  0 
 13 12  2  0  0  0  0 
M  END
> <Name>
DIBENZOTHIOPHENE

> <Source>
DougDB3DMolFile

> <Tox>
-3.688

> <CAS>
132-65-0

$$$$

  CDK

 16 17  0  0  0  0  0  0  0  0999 V2000
    4.9479   -4.0566    0.0000 O   0  0  0  0  0  0  0  0  0  0  0  0
    3.9584   -3.1652    0.0000 C   0  0  0  0  0  0  0  0  0  0  0  0
    4.1019   -1.8432    0.0000 N   0  0  0  0  0  0  0  0  0  0  0  0
    2.6590   -3.4447    0.0000 C   0  0  0  0  0  0  0  0  0  0  0  0
    2.8857   -1.2993    0.0000 C   0  0  0  0  0  0  0  0  0  0  0  0
    5.2501   -1.1784    0.0000 S   0  0  0  0  0  0  0  0  0  0  0  0
    1.9943   -2.2889    0.0000 C   0  0  0  0  0  0  0  0  0  0  0  0
    1.9943   -4.5929    0.0000 C   0  0  0  0  0  0  0  0  0  0  0  0
    2.6062   -0.0000    0.0000 O   0  0  0  0  0  0  0  0  0  0  0  0
    6.4059   -1.8432    0.0000 C   0  0  0  0  0  0  0  0  0  0  0  0
    0.6648   -2.2889    0.0000 C   0  0  0  0  0  0  0  0  0  0  0  0
    0.6648   -4.5929    0.0000 C   0  0  0  0  0  0  0  0  0  0  0  0
    7.0707   -0.6874    0.0000 Cl  0  0  0  0  0  0  0  0  0  0  0  0
    7.5541   -2.5080    0.0000 Cl  0  0  0  0  0  0  0  0  0  0  0  0
    5.7411   -2.9914    0.0000 Cl  0  0  0  0  0  0  0  0  0  0  0  0
    0.0000   -3.4447    0.0000 C   0  0  0  0  0  0  0  0  0  0  0  0
  1  2  2  0  0  0  0 
  2  3  1  0  0  0  0 
  2  4  1  0  0  0  0 
  3  5  1  0  0  0  0 
  3  6  1  0  0  0  0 
  7  4  1  0  0  0  0 
  4  8  1  0  0  0  0 
  5  9  2  0  0  0  0 
  5  7  1  0  0  0  0 
  6 10  1  0  0  0  0 
  7 11  1  0  0  0  0 
  8 12  1  0  0  0  0 
 10 13  1  0  0  0  0 
 10 14  1  0  0  0  0 
 10 15  1  0  0  0  0 
 16 11  1  0  0  0  0 
 12 16  2  0  0  0  0 
M  END
> <Name>
CAPTAN

> <Source>
DSSTox2DMolFile

> <Tox>
-7.046

> <CAS>
133-06-2

$$$$

  CDK

 16 17  0  0  0  0  0  0  0  0999 V2000
    4.9479   -4.0566    0.0000 O   0  0  0  0  0  0  0  0  0  0  0  0
    3.9584   -3.1652    0.0000 C   0  0  0  0  0  0  0  0  0  0  0  0
    4.1019   -1.8432    0.0000 N   0  0  0  0  0  0  0  0  0  0  0  0
    2.6590   -3.4447    0.0000 C   0  0  0  0  0  0  0  0  0  0  0  0
    2.8857   -1.2993    0.0000 C   0  0  0  0  0  0  0  0  0  0  0  0
    5.2501   -1.1784    0.0000 S   0  0  0  0  0  0  0  0  0  0  0  0
    1.9943   -2.2889    0.0000 C   0  0  0  0  0  0  0  0  0  0  0  0
    1.9943   -4.5929    0.0000 C   0  0  0  0  0  0  0  0  0  0  0  0
    2.6062   -0.0000    0.0000 O   0  0  0  0  0  0  0  0  0  0  0  0
    6.4059   -1.8432    0.0000 C   0  0  0  0  0  0  0  0  0  0  0  0
    0.6648   -2.2889    0.0000 C   0  0  0  0  0  0  0  0  0  0  0  0
    0.6648   -4.5929    0.0000 C   0  0  0  0  0  0  0  0  0  0  0  0
    7.0707   -0.6874    0.0000 Cl  0  0  0  0  0  0  0  0  0  0  0  0
    7.5541   -2.5080    0.0000 Cl  0  0  0  0  0  0  0  0  0  0  0  0
    5.7411   -2.9914    0.0000 Cl  0  0  0  0  0  0  0  0  0  0  0  0
    0.0000   -3.4447    0.0000 C   0  0  0  0  0  0  0  0  0  0  0  0
  1  2  2  0  0  0  0 
  2  3  1  0  0  0  0 
  2  4  1  0  0  0  0 
  3  5  1  0  0  0  0 
  3  6  1  0  0  0  0 
  7  4  2  0  0  0  0 
  4  8  1  0  0  0  0 
  5  9  2  0  0  0  0 
  5  7  1  0  0  0  0 
  6 10  1  0  0  0  0 
  7 11  1  0  0  0  0 
  8 12  2  0  0  0  0 
 10 13  1  0  0  0  0 
 10 14  1  0  0  0  0 
 10 15  1  0  0  0  0 
 16 11  2  0  0  0  0 
 12 16  1  0  0  0  0 
M  END
> <Name>
FOLPET

> <Source>
DSSTox2DMolFile

> <Tox>
-6.804

> <CAS>
133-07-3

$$$$

  CDK

 11 11  0  0  0  0  0  0  0  0999 V2000
    0.0000   -1.1543    0.0000 O   0  0  0  0  0  0  0  0  0  0  0  0
    0.6656   -2.3039    0.0000 C   0  0  0  0  0  0  0  0  0  0  0  0
    0.0000   -3.4582    0.0000 O   0  0  0  0  0  0  0  0  0  0  0  0
    1.9968   -2.3039    0.0000 C   0  0  0  0  0  0  0  0  0  0  0  0
    0.6656   -4.6079    0.0000 C   0  0  0  0  0  0  0  0  0  0  0  0
    2.6577   -1.1543    0.0000 C   0  0  0  0  0  0  0  0  0  0  0  0
    2.6577   -3.4582    0.0000 C   0  0  0  0  0  0  0  0  0  0  0  0
    1.9968   -0.0000    0.0000 N   0  0  0  0  0  0  0  0  0  0  0  0
    3.9889   -1.1543    0.0000 C   0  0  0  0  0  0  0  0  0  0  0  0
    3.9889   -3.4582    0.0000 C   0  0  0  0  0  0  0  0  0  0  0  0
    4.6544   -2.3039    0.0000 C   0  0  0  0  0  0  0  0  0  0  0  0
  1  2  2  0  0  0  0 
  2  3  1  0  0  0  0 
  2  4  1  0  0  0  0 
  3  5  1  0  0  0  0 
  4  6  2  0  0  0  0 
  4  7  1  0  0  0  0 
  6  8  1  0  0  0  0 
  6  9  1  0  0  0  0 
 10  7  2  0  0  0  0 
  9 11  2  0  0  0  0 
 11 10  1  0  0  0  0 
M  END
> <Name>
METHYL ANTHRANILATE

> <Source>
DSSTox2DMolFile

> <Tox>
-1.567

> <CAS>
134-20-3

$$$$

  CDK

 11 12  0  0  0  0  0  0  0  0999 V2000
    2.3209   -3.1982    0.0000 C   0  0  0  0  0  0  0  0  0  0  0  0
    2.3209   -1.8521    0.0000 C   0  0  0  0  0  0  0  0  0  0  0  0
    1.1604   -3.8759    0.0000 C   0  0  0  0  0  0  0  0  0  0  0  0
    3.4813   -3.8759    0.0000 C   0  0  0  0  0  0  0  0  0  0  0  0
    1.1604   -1.1790    0.0000 C   0  0  0  0  0  0  0  0  0  0  0  0
    3.4813   -1.1790    0.0000 C   0  0  0  0  0  0  0  0  0  0  0  0
    0.0000   -3.1982    0.0000 C   0  0  0  0  0  0  0  0  0  0  0  0
    4.6418   -3.1982    0.0000 C   0  0  0  0  0  0  0  0  0  0  0  0
    0.0000   -1.8521    0.0000 C   0  0  0  0  0  0  0  0  0  0  0  0
    4.6418   -1.8521    0.0000 C   0  0  0  0  0  0  0  0  0  0  0  0
    3.5370   -0.0000    0.0000 N   0  0  0  0  0  0  0  0  0  0  0  0
  1  2  2  0  0  0  0 
  1  3  1  0  0  0  0 
  1  4  1  0  0  0  0 
  2  5  1  0  0  0  0 
  2  6  1  0  0  0  0 
  3  7  2  0  0  0  0 
  4  8  2  0  0  0  0 
  5  9  2  0  0  0  0 
  6 10  2  0  0  0  0 
  6 11  1  0  0  0  0 
  7  9  1  0  0  0  0 
  8 10  1  0  0  0  0 
M  END
> <Name>
1-NAPHTHYLAMINE

> <Source>
DSSTox2DMolFile

> <Tox>
-2.379

> <CAS>
134-32-7

$$$$

  CDK

 14 14  0  0  0  0  0  0  0  0999 V2000
    6.6497   -2.3074    0.0000 C   0  0  0  0  0  0  0  0  0  0  0  0
    5.9847   -1.1570    0.0000 C   0  0  0  0  0  0  0  0  0  0  0  0
    4.6548   -1.1570    0.0000 N   0  0  0  0  0  0  0  0  0  0  0  0
    3.9898   -0.0000    0.0000 C   0  0  0  0  0  0  0  0  0  0  0  0
    3.9898   -2.3074    0.0000 C   0  0  0  0  0  0  0  0  0  0  0  0
    2.6599   -0.0000    0.0000 C   0  0  0  0  0  0  0  0  0  0  0  0
    4.6548   -3.4578    0.0000 O   0  0  0  0  0  0  0  0  0  0  0  0
    2.6599   -2.3074    0.0000 C   0  0  0  0  0  0  0  0  0  0  0  0
    1.9949   -3.4578    0.0000 C   0  0  0  0  0  0  0  0  0  0  0  0
    1.9949   -1.1570    0.0000 C   0  0  0  0  0  0  0  0  0  0  0  0
    0.6650   -3.4578    0.0000 C   0  0  0  0  0  0  0  0  0  0  0  0
    0.6650   -1.1570    0.0000 C   0  0  0  0  0  0  0  0  0  0  0  0
    0.0000   -2.3074    0.0000 C   0  0  0  0  0  0  0  0  0  0  0  0
    0.0000   -0.0000    0.0000 C   0  0  0  0  0  0  0  0  0  0  0  0
  1  2  1  0  0  0  0 
  2  3  1  0  0  0  0 
  3  4  1  0  0  0  0 
  3  5  1  0  0  0  0 
  4  6  1  0  0  0  0 
  5  7  2  0  0  0  0 
  5  8  1  0  0  0  0 
  8  9  2  0  0  0  0 
  8 10  1  0  0  0  0 
  9 11  1  0  0  0  0 
 12 10  2  0  0  0  0 
 11 13  2  0  0  0  0 
 13 12  1  0  0  0  0 
 12 14  1  0  0  0  0 
M  END
> <Name>
DEET [N,N,-DIET-3-ME BENZAMIDE]

> <Source>
DSSTox2DMolFile

> <Tox>
-2.699

> <CAS>
134-62-3

$$$$

  CDK

 16 17  0  0  0  0  0  0  0  0999 V2000
    1.4917    1.7403    0.0000 C   0  0  0  0  0  0  0  0  0  0  0  0
    1.9890    0.8950    0.0000 C   0  0  0  0  0  0  0  0  0  0  0  0
    0.4972    1.7403    0.0000 C   0  0  0  0  0  0  0  0  0  0  0  0
    1.9890    2.5857    0.0000 C   0  0  0  0  0  0  0  0  0  0  0  0
    1.4917    0.0000    0.0000 C   0  0  0  0  0  0  0  0  0  0  0  0
    0.0000    0.8950    0.0000 C   0  0  0  0  0  0  0  0  0  0  0  0
    1.4917    3.4807    0.0000 O   0  0  0  0  0  0  0  0  0  0  0  0
    2.9835    2.5857    0.0000 C   0  0  0  0  0  0  0  0  0  0  0  0
    0.4972    0.0000    0.0000 C   0  0  0  0  0  0  0  0  0  0  0  0
    3.4807    1.7403    0.0000 C   0  0  0  0  0  0  0  0  0  0  0  0
    3.4807    3.4807    0.0000 O   0  0  0  0  0  0  0  0  0  0  0  0
    4.4752    1.7403    0.0000 C   0  0  0  0  0  0  0  0  0  0  0  0
    2.9835    0.8950    0.0000 C   0  0  0  0  0  0  0  0  0  0  0  0
    4.9724    0.8950    0.0000 C   0  0  0  0  0  0  0  0  0  0  0  0
    3.4807    0.0000    0.0000 C   0  0  0  0  0  0  0  0  0  0  0  0
    4.4752    0.0000    0.0000 C   0  0  0  0  0  0  0  0  0  0  0  0
  1  2  2  0  0  0  0 
  3  1  1  0  0  0  0 
  1  4  1  0  0  0  0 
  2  5  1  0  0  0  0 
  6  3  2  0  0  0  0 
  4  7  2  0  0  0  0 
  4  8  1  0  0  0  0 
  5  9  2  0  0  0  0 
  9  6  1  0  0  0  0 
  8 10  1  0  0  0  0 
  8 11  2  0  0  0  0 
 10 12  2  0  0  0  0 
 13 10  1  0  0  0  0 
 12 14  1  0  0  0  0 
 15 13  2  0  0  0  0 
 14 16  2  0  0  0  0 
 16 15  1  0  0  0  0 
M  END
> <Name>
BENZIL

> <Source>
NIST2DMolFile

> <Tox>
-3.684

> <CAS>
134-81-6

$$$$

  CDK

 10 10  0  0  0  0  0  0  0  0999 V2000
    3.9513    5.5098    1.8938 C   0  0  0  0  0  0  0  0  0  0  0  0
    3.6429    4.6648    0.6756 C   0  0  0  0  0  0  0  0  0  0  0  0
    3.0405    3.3505    1.0621 C   0  0  0  0  0  0  0  0  0  0  0  0
    3.7971    2.1731    1.1229 C   0  0  0  0  0  0  0  0  0  0  0  0
    1.6768    3.3069    1.3678 C   0  0  0  0  0  0  0  0  0  0  0  0
    5.2595    2.1499    0.8063 C   0  0  0  0  0  0  0  0  0  0  0  0
    3.1739    0.9761    1.4880 C   0  0  0  0  0  0  0  0  0  0  0  0
    1.0684    2.1135    1.7303 C   0  0  0  0  0  0  0  0  0  0  0  0
    6.0969    2.1668    2.0680 C   0  0  0  0  0  0  0  0  0  0  0  0
    1.8197    0.9438    1.7906 C   0  0  0  0  0  0  0  0  0  0  0  0
  1  2  1  0  0  0  0 
  2  3  1  0  0  0  0 
  3  4  2  0  0  0  0 
  5  3  1  0  0  0  0 
  4  6  1  0  0  0  0 
  4  7  1  0  0  0  0 
  8  5  2  0  0  0  0 
  6  9  1  0  0  0  0 
  7 10  2  0  0  0  0 
 10  8  1  0  0  0  0 
M  END
> <Name>
O-DIETHYLBENZENE

> <Source>
NIST3DMolFile

> <Tox>
0.021

> <CAS>
135-01-3

$$$$

  CDK

 11 12  0  0  0  0  0  0  0  0999 V2000
    2.3040   -0.6566    0.0000 C   0  0  0  0  0  0  0  0  0  0  0  0
    2.3040   -1.9987    0.0000 C   0  0  0  0  0  0  0  0  0  0  0  0
    1.1520   -0.0000    0.0000 C   0  0  0  0  0  0  0  0  0  0  0  0
    3.4559   -0.0000    0.0000 C   0  0  0  0  0  0  0  0  0  0  0  0
    1.1520   -2.6553    0.0000 C   0  0  0  0  0  0  0  0  0  0  0  0
    3.4559   -2.6553    0.0000 C   0  0  0  0  0  0  0  0  0  0  0  0
    0.0000   -0.6566    0.0000 C   0  0  0  0  0  0  0  0  0  0  0  0
    4.6079   -0.6566    0.0000 C   0  0  0  0  0  0  0  0  0  0  0  0
    0.0000   -1.9987    0.0000 C   0  0  0  0  0  0  0  0  0  0  0  0
    4.6079   -1.9987    0.0000 C   0  0  0  0  0  0  0  0  0  0  0  0
    5.7599   -0.0000    0.0000 O   0  0  0  0  0  0  0  0  0  0  0  0
  1  2  2  0  0  0  0 
  1  3  1  0  0  0  0 
  1  4  1  0  0  0  0 
  2  5  1  0  0  0  0 
  2  6  1  0  0  0  0 
  3  7  2  0  0  0  0 
  4  8  2  0  0  0  0 
  5  9  2  0  0  0  0 
  6 10  2  0  0  0  0 
  9  7  1  0  0  0  0 
  8 10  1  0  0  0  0 
  8 11  1  0  0  0  0 
M  END
> <Name>
2-NAPHTHOL

> <Source>
DSSTox2DMolFile

> <Tox>
-3.495

> <CAS>
135-19-3

$$$$

  CDK

 10 10  0  0  0  0  0  0  0  0999 V2000
    1.1572   -2.6644    0.0000 C   0  0  0  0  0  0  0  0  0  0  0  0
    1.1572   -3.9989    0.0000 C   0  0  0  0  0  0  0  0  0  0  0  0
    2.3144   -2.0018    0.0000 C   0  0  0  0  0  0  0  0  0  0  0  0
    0.0093   -1.9925    0.0000 C   0  0  0  0  0  0  0  0  0  0  0  0
    2.3098   -4.6662    0.0000 C   0  0  0  0  0  0  0  0  0  0  0  0
    0.0000   -4.6662    0.0000 C   0  0  0  0  0  0  0  0  0  0  0  0
    2.3191   -0.6719    0.0000 C   0  0  0  0  0  0  0  0  0  0  0  0
    0.0140   -0.6626    0.0000 C   0  0  0  0  0  0  0  0  0  0  0  0
    3.4437   -4.0083    0.0000 C   0  0  0  0  0  0  0  0  0  0  0  0
    1.1712   -0.0000    0.0000 C   0  0  0  0  0  0  0  0  0  0  0  0
  1  2  1  0  0  0  0 
  1  3  2  0  0  0  0 
  1  4  1  0  0  0  0 
  2  5  1  0  0  0  0 
  2  6  1  0  0  0  0 
  3  7  1  0  0  0  0 
  4  8  2  0  0  0  0 
  5  9  1  0  0  0  0 
  7 10  2  0  0  0  0 
  8 10  1  0  0  0  0 
M  END
> <Name>
SEC-BUTYLBENZENE

> <Source>
DSSTox2DMolFile

> <Tox>
0.243

> <CAS>
135-98-8

$$$$

  CDK

 15 16  0  0  0  0  0  0  0  0999 V2000
    3.4530   -2.6611    0.0000 N   0  0  0  0  0  0  0  0  0  0  0  0
    4.6040   -1.9981    0.0000 N   0  0  0  0  0  0  0  0  0  0  0  0
    2.3020   -1.9981    0.0000 C   0  0  0  0  0  0  0  0  0  0  0  0
    5.7550   -2.6611    0.0000 N   0  0  0  0  0  0  0  0  0  0  0  0
    1.1510   -2.6611    0.0000 C   0  0  0  0  0  0  0  0  0  0  0  0
    2.3020   -0.6630    0.0000 C   0  0  0  0  0  0  0  0  0  0  0  0
    6.9060   -1.9981    0.0000 C   0  0  0  0  0  0  0  0  0  0  0  0
    0.0000   -1.9981    0.0000 C   0  0  0  0  0  0  0  0  0  0  0  0
    1.1510   -0.0000    0.0000 C   0  0  0  0  0  0  0  0  0  0  0  0
    6.9060   -0.6630    0.0000 C   0  0  0  0  0  0  0  0  0  0  0  0
    8.0570   -2.6611    0.0000 C   0  0  0  0  0  0  0  0  0  0  0  0
    0.0000   -0.6630    0.0000 C   0  0  0  0  0  0  0  0  0  0  0  0
    8.0570   -0.0000    0.0000 C   0  0  0  0  0  0  0  0  0  0  0  0
    9.2080   -1.9981    0.0000 C   0  0  0  0  0  0  0  0  0  0  0  0
    9.2080   -0.6630    0.0000 C   0  0  0  0  0  0  0  0  0  0  0  0
  1  2  2  0  0  0  0 
  1  3  1  0  0  0  0 
  2  4  1  0  0  0  0 
  3  5  2  0  0  0  0 
  3  6  1  0  0  0  0 
  4  7  1  0  0  0  0 
  5  8  1  0  0  0  0 
  9  6  2  0  0  0  0 
  7 10  2  0  0  0  0 
  7 11  1  0  0  0  0 
  8 12  2  0  0  0  0 
 12  9  1  0  0  0  0 
 10 13  1  0  0  0  0 
 14 11  2  0  0  0  0 
 13 15  2  0  0  0  0 
 15 14  1  0  0  0  0 
M  END
> <Name>
1,3-DIPHENYL-1-TRIAZENE

> <Source>
DSSTox2DMolFile

> <Tox>
-4.719

> <CAS>
136-35-6

$$$$

  CDK

 13 13  0  0  0  0  0  0  0  0999 V2000
   -0.3214    0.9054   -0.0011 C   0  0  0  0  0  0  0  0  0  0  0  0
   -1.6317    0.2012   -0.0003 C   0  0  0  0  0  0  0  0  0  0  0  0
   -0.1392    2.1096   -0.0018 O   0  0  0  0  0  0  0  0  0  0  0  0
    0.7655    0.0800   -0.0007 O   0  0  0  0  0  0  0  0  0  0  0  0
   -1.7248   -1.1932   -0.0017 C   0  0  0  0  0  0  0  0  0  0  0  0
   -2.7985    0.9721    0.0017 C   0  0  0  0  0  0  0  0  0  0  0  0
    2.0658    0.6721   -0.0011 C   0  0  0  0  0  0  0  0  0  0  0  0
   -2.9734   -1.8049   -0.0010 C   0  0  0  0  0  0  0  0  0  0  0  0
   -4.0427    0.3525    0.0024 C   0  0  0  0  0  0  0  0  0  0  0  0
    3.0607   -0.4853   -0.0017 C   0  0  0  0  0  0  0  0  0  0  0  0
   -4.1321   -1.0354    0.0011 C   0  0  0  0  0  0  0  0  0  0  0  0
    4.4847    0.0472    0.0035 C   0  0  0  0  0  0  0  0  0  0  0  0
    5.4934   -1.0791    0.0008 C   0  0  0  0  0  0  0  0  0  0  0  0
  1  2  1  0  0  0  0 
  1  3  2  0  0  0  0 
  1  4  1  0  0  0  0 
  2  5  1  0  0  0  0 
  2  6  2  0  0  0  0 
  4  7  1  0  0  0  0 
  5  8  2  0  0  0  0 
  9  6  1  0  0  0  0 
  7 10  1  0  0  0  0 
  8 11  1  0  0  0  0 
 11  9  2  0  0  0  0 
 10 12  1  0  0  0  0 
 12 13  1  0  0  0  0 
M  END
> <Name>
BUTYL BENZOATE

> <Source>
DougDB3DMolFile

> <Tox>
-2.000

> <CAS>
136-60-7

$$$$

  CDK

  8  8  0  0  0  0  0  0  0  0999 V2000
    0.0000    1.9697    0.0000 C   0  0  0  0  0  0  0  0  0  0  0  0
    0.8812    1.4514    0.0000 C   0  0  0  0  0  0  0  0  0  0  0  0
    1.7624    1.9697    0.0000 C   0  0  0  0  0  0  0  0  0  0  0  0
    0.8812    0.5183    0.0000 C   0  0  0  0  0  0  0  0  0  0  0  0
    2.6435    1.4514    0.0000 C   0  0  0  0  0  0  0  0  0  0  0  0
    1.7624    0.0000    0.0000 C   0  0  0  0  0  0  0  0  0  0  0  0
    0.0000    0.0000    0.0000 S   0  0  0  0  0  0  0  0  0  0  0  0
    2.6435    0.5183    0.0000 C   0  0  0  0  0  0  0  0  0  0  0  0
  1  2  1  0  0  0  0 
  2  3  2  0  0  0  0 
  4  2  1  0  0  0  0 
  3  5  1  0  0  0  0 
  6  4  2  0  0  0  0 
  4  7  1  0  0  0  0 
  5  8  2  0  0  0  0 
  8  6  1  0  0  0  0 
M  END
> <Name>
2-METHYLBENZENETHIOL

> <Source>
NIST2DMolFile

> <Tox>
-0.192

> <CAS>
137-06-4

$$$$

  CDK

 10 10  0  0  0  0  0  0  0  0999 V2000
    4.6084   -2.6590    0.0000 C   0  0  0  0  0  0  0  0  0  0  0  0
    3.4563   -1.9954    0.0000 C   0  0  0  0  0  0  0  0  0  0  0  0
    2.3042   -2.6590    0.0000 C   0  0  0  0  0  0  0  0  0  0  0  0
    3.4563   -0.6636    0.0000 C   0  0  0  0  0  0  0  0  0  0  0  0
    1.1521   -1.9954    0.0000 C   0  0  0  0  0  0  0  0  0  0  0  0
    2.3042   -0.0000    0.0000 C   0  0  0  0  0  0  0  0  0  0  0  0
    4.6084   -0.0000    0.0000 C   0  0  0  0  0  0  0  0  0  0  0  0
    1.1521   -0.6636    0.0000 C   0  0  0  0  0  0  0  0  0  0  0  0
    0.0000   -2.6590    0.0000 C   0  0  0  0  0  0  0  0  0  0  0  0
    0.0000   -0.0000    0.0000 N   0  0  0  0  0  0  0  0  0  0  0  0
  1  2  1  0  0  0  0 
  2  3  2  0  0  0  0 
  2  4  1  0  0  0  0 
  3  5  1  0  0  0  0 
  6  4  2  0  0  0  0 
  4  7  1  0  0  0  0 
  5  8  2  0  0  0  0 
  5  9  1  0  0  0  0 
  8  6  1  0  0  0  0 
  8 10  1  0  0  0  0 
M  END
> <Name>
2,4,5-Trimethylaniline

> <Source>
DSSTox2DMolFile

> <Tox>
-2.046

> <CAS>
137-17-7

$$$$

  CDK

  6  5  0  0  0  0  0  0  0  0999 V2000
    1.1683   -0.0000    0.0000 C   0  0  0  0  0  0  0  0  0  0  0  0
    2.3228   -0.6604    0.0000 C   0  0  0  0  0  0  0  0  0  0  0  0
    0.0000   -0.6604    0.0000 O   0  0  0  0  0  0  0  0  0  0  0  0
    3.4773   -0.0000    0.0000 C   0  0  0  0  0  0  0  0  0  0  0  0
    2.3228   -1.9903    0.0000 C   0  0  0  0  0  0  0  0  0  0  0  0
    4.6179   -0.6604    0.0000 C   0  0  0  0  0  0  0  0  0  0  0  0
  1  2  1  0  0  0  0 
  1  3  1  0  0  0  0 
  2  4  1  0  0  0  0 
  2  5  1  0  0  0  0 
  4  6  1  0  0  0  0 
M  END
> <Name>
2-METHYL-1-BUTANOL

> <Source>
DSSTox2DMolFile

> <Tox>
0.494

> <CAS>
137-32-6

$$$$

  CDK

 10 10  0  0  0  0  0  0  0  0999 V2000
    1.1532   -1.3325    0.0000 C   0  0  0  0  0  0  0  0  0  0  0  0
    2.3064   -1.9837    0.0000 C   0  0  0  0  0  0  0  0  0  0  0  0
    0.0000   -1.9837    0.0000 C   0  0  0  0  0  0  0  0  0  0  0  0
    1.1532   -0.0000    0.0000 C   0  0  0  0  0  0  0  0  0  0  0  0
    2.3064   -3.3162    0.0000 C   0  0  0  0  0  0  0  0  0  0  0  0
    0.0000   -3.3162    0.0000 C   0  0  0  0  0  0  0  0  0  0  0  0
    1.1532   -3.9914    0.0000 C   0  0  0  0  0  0  0  0  0  0  0  0
    1.1532   -5.3179    0.0000 C   0  0  0  0  0  0  0  0  0  0  0  0
    2.3064   -5.9751    0.0000 C   0  0  0  0  0  0  0  0  0  0  0  0
    0.0000   -5.9751    0.0000 C   0  0  0  0  0  0  0  0  0  0  0  0
  1  2  2  0  0  0  0 
  1  3  1  0  0  0  0 
  1  4  1  0  0  0  0 
  2  5  1  0  0  0  0 
  6  3  1  0  0  0  0 
  5  7  1  0  0  0  0 
  7  6  1  0  0  0  0 
  7  8  1  0  0  0  0 
  8  9  2  0  0  0  0 
  8 10  1  0  0  0  0 
M  END
> <Name>
LIMONENE

> <Source>
DSSTox2DMolFile

> <Tox>
0.190

> <CAS>
138-86-3

$$$$

  CDK

 15 15  0  0  0  0  0  0  0  0999 V2000
    1.9946   -0.0000    0.0000 Cl  0  0  0  0  0  0  0  0  0  0  0  0
    2.6568   -1.1568    0.0000 C   0  0  0  0  0  0  0  0  0  0  0  0
    3.9891   -1.1568    0.0000 N   0  0  0  0  0  0  0  0  0  0  0  0
    1.9946   -2.3057    0.0000 N   0  0  0  0  0  0  0  0  0  0  0  0
    4.6513   -2.3057    0.0000 C   0  0  0  0  0  0  0  0  0  0  0  0
    2.6568   -3.4546    0.0000 C   0  0  0  0  0  0  0  0  0  0  0  0
    3.9891   -3.4546    0.0000 N   0  0  0  0  0  0  0  0  0  0  0  0
    5.9837   -2.3057    0.0000 N   0  0  0  0  0  0  0  0  0  0  0  0
    1.9946   -4.6114    0.0000 N   0  0  0  0  0  0  0  0  0  0  0  0
    6.6459   -3.4546    0.0000 C   0  0  0  0  0  0  0  0  0  0  0  0
    0.6622   -4.6114    0.0000 C   0  0  0  0  0  0  0  0  0  0  0  0
    7.9783   -3.4546    0.0000 C   0  0  0  0  0  0  0  0  0  0  0  0
    5.9837   -4.6114    0.0000 C   0  0  0  0  0  0  0  0  0  0  0  0
    0.0000   -5.7603    0.0000 C   0  0  0  0  0  0  0  0  0  0  0  0
    0.0000   -3.4546    0.0000 C   0  0  0  0  0  0  0  0  0  0  0  0
  1  2  1  0  0  0  0 
  2  3  2  0  0  0  0 
  2  4  1  0  0  0  0 
  3  5  1  0  0  0  0 
  6  4  2  0  0  0  0 
  5  7  2  0  0  0  0 
  5  8  1  0  0  0  0 
  7  6  1  0  0  0  0 
  6  9  1  0  0  0  0 
  8 10  1  0  0  0  0 
  9 11  1  0  0  0  0 
 10 12  1  0  0  0  0 
 10 13  1  0  0  0  0 
 11 14  1  0  0  0  0 
 11 15  1  0  0  0  0 
M  END
> <Name>
PROPAZINE

> <Source>
DSSTox2DMolFile

> <Tox>
-6.883

> <CAS>
139-40-2

$$$$

  CDK

 13 14  0  0  0  0  0  0  0  0999 V2000
    2.5837    1.9874    0.0000 S   0  0  0  0  0  0  0  0  0  0  0  0
    1.7390    1.4906    0.0000 C   0  0  0  0  0  0  0  0  0  0  0  0
    3.4283    1.4906    0.0000 C   0  0  0  0  0  0  0  0  0  0  0  0
    0.8447    1.9874    0.0000 C   0  0  0  0  0  0  0  0  0  0  0  0
    1.7390    0.4969    0.0000 C   0  0  0  0  0  0  0  0  0  0  0  0
    3.4283    0.4969    0.0000 C   0  0  0  0  0  0  0  0  0  0  0  0
    4.2730    1.9874    0.0000 C   0  0  0  0  0  0  0  0  0  0  0  0
    0.0000    1.4906    0.0000 C   0  0  0  0  0  0  0  0  0  0  0  0
    0.8943    0.0000    0.0000 C   0  0  0  0  0  0  0  0  0  0  0  0
    4.3227    0.0000    0.0000 C   0  0  0  0  0  0  0  0  0  0  0  0
    5.1673    1.5403    0.0000 C   0  0  0  0  0  0  0  0  0  0  0  0
    0.0000    0.4472    0.0000 C   0  0  0  0  0  0  0  0  0  0  0  0
    5.1673    0.4969    0.0000 C   0  0  0  0  0  0  0  0  0  0  0  0
  1  2  1  0  0  0  0 
  1  3  1  0  0  0  0 
  4  2  2  0  0  0  0 
  2  5  1  0  0  0  0 
  6  3  2  0  0  0  0 
  3  7  1  0  0  0  0 
  8  4  1  0  0  0  0 
  5  9  2  0  0  0  0 
 10  6  1  0  0  0  0 
  7 11  2  0  0  0  0 
 12  8  2  0  0  0  0 
  9 12  1  0  0  0  0 
 13 10  2  0  0  0  0 
 11 13  1  0  0  0  0 
M  END
> <Name>
DIPHENYLSULFIDE

> <Source>
NIST2DMolFile

> <Tox>
-2.123

> <CAS>
139-66-2

$$$$

  CDK

  9  9  0  0  0  0  0  0  0  0999 V2000
    0.0000   -1.3304    0.0000 N   0  0  0  0  0  0  0  0  0  0  0  0
    1.1518   -1.9984    0.0000 C   0  0  0  0  0  0  0  0  0  0  0  0
    2.3037   -2.6607    0.0000 C   0  0  0  0  0  0  0  0  0  0  0  0
    3.4555   -1.9984    0.0000 C   0  0  0  0  0  0  0  0  0  0  0  0
    3.4555   -0.6681    0.0000 C   0  0  0  0  0  0  0  0  0  0  0  0
    4.6073   -2.6607    0.0000 C   0  0  0  0  0  0  0  0  0  0  0  0
    4.6073   -0.0000    0.0000 C   0  0  0  0  0  0  0  0  0  0  0  0
    5.7591   -1.9984    0.0000 C   0  0  0  0  0  0  0  0  0  0  0  0
    5.7591   -0.6681    0.0000 C   0  0  0  0  0  0  0  0  0  0  0  0
  1  2  3  0  0  0  0 
  2  3  1  0  0  0  0 
  3  4  1  0  0  0  0 
  4  5  2  0  0  0  0 
  4  6  1  0  0  0  0 
  5  7  1  0  0  0  0 
  8  6  2  0  0  0  0 
  7  9  2  0  0  0  0 
  9  8  1  0  0  0  0 
M  END
> <Name>
PHENYLACETONITRILE

> <Source>
DSSTox2DMolFile

> <Tox>
-1.049

> <CAS>
140-29-4

$$$$

  CDK

 15 15  0  0  0  0  0  0  0  0999 V2000
    3.1745   -1.1743    0.0000 C   0  0  0  0  0  0  0  0  0  0  0  0
    4.2807   -1.8032    0.0000 C   0  0  0  0  0  0  0  0  0  0  0  0
    2.5381   -2.2729    0.0000 C   0  0  0  0  0  0  0  0  0  0  0  0
    2.3638   -0.0000    0.0000 C   0  0  0  0  0  0  0  0  0  0  0  0
    3.8185   -0.0758    0.0000 C   0  0  0  0  0  0  0  0  0  0  0  0
    5.3792   -1.1743    0.0000 C   0  0  0  0  0  0  0  0  0  0  0  0
    4.2807   -3.0684    0.0000 C   0  0  0  0  0  0  0  0  0  0  0  0
    1.2804   -2.2729    0.0000 C   0  0  0  0  0  0  0  0  0  0  0  0
    6.4778   -1.8032    0.0000 C   0  0  0  0  0  0  0  0  0  0  0  0
    5.3792   -3.7124    0.0000 C   0  0  0  0  0  0  0  0  0  0  0  0
    0.0000   -2.5987    0.0000 C   0  0  0  0  0  0  0  0  0  0  0  0
    0.2728   -0.8258    0.0000 C   0  0  0  0  0  0  0  0  0  0  0  0
    0.9925   -3.7276    0.0000 C   0  0  0  0  0  0  0  0  0  0  0  0
    6.4778   -3.0684    0.0000 C   0  0  0  0  0  0  0  0  0  0  0  0
    7.5764   -3.7124    0.0000 O   0  0  0  0  0  0  0  0  0  0  0  0
  1  2  1  0  0  0  0 
  1  3  1  0  0  0  0 
  1  4  1  0  0  0  0 
  1  5  1  0  0  0  0 
  2  6  2  0  0  0  0 
  2  7  1  0  0  0  0 
  3  8  1  0  0  0  0 
  6  9  1  0  0  0  0 
 10  7  2  0  0  0  0 
  8 11  1  0  0  0  0 
  8 12  1  0  0  0  0 
  8 13  1  0  0  0  0 
  9 14  2  0  0  0  0 
 14 10  1  0  0  0  0 
 14 15  1  0  0  0  0 
M  END
> <Name>
P-(1,1,3,3-TETRAMETHYLBUTYL)PHENOL

> <Source>
DSSTox2DMolFile

> <Tox>
-3.321

> <CAS>
140-66-9

$$$$

  CDK

  9  9  0  0  0  0  0  0  0  0999 V2000
   -1.7428    0.0901   -0.0013 C   0  0  0  0  0  0  0  0  0  0  0  0
   -1.2195   -1.2075   -0.0011 C   0  0  0  0  0  0  0  0  0  0  0  0
   -0.9165    1.1750   -0.0016 N   0  0  0  0  0  0  0  0  0  0  0  0
   -3.2113    0.3376    0.0021 C   0  0  0  0  0  0  0  0  0  0  0  0
    0.1586   -1.3928   -0.0003 C   0  0  0  0  0  0  0  0  0  0  0  0
    0.4178    0.9977   -0.0007 C   0  0  0  0  0  0  0  0  0  0  0  0
    1.0018   -0.2792    0.0001 C   0  0  0  0  0  0  0  0  0  0  0  0
    2.4510   -0.4430    0.0009 C   0  0  0  0  0  0  0  0  0  0  0  0
    3.2934    0.5886    0.0008 C   0  0  0  0  0  0  0  0  0  0  0  0
  1  2  1  0  0  0  0 
  1  3  2  0  0  0  0 
  1  4  1  0  0  0  0 
  2  5  2  0  0  0  0 
  6  3  1  0  0  0  0 
  5  7  1  0  0  0  0 
  7  6  2  0  0  0  0 
  7  8  1  0  0  0  0 
  8  9  2  0  0  0  0 
M  END
> <Name>
2-METHYL-5-VINYLPYRIDINE

> <Source>
DougDB3DMolFile

> <Tox>
0.072

> <CAS>
140-76-1

$$$$

  CDK

 12 11  0  0  0  0  0  0  0  0999 V2000
    1.1545   -5.3201    0.0000 O   0  0  0  0  0  0  0  0  0  0  0  0
    1.1545   -3.9901    0.0000 C   0  0  0  0  0  0  0  0  0  0  0  0
    0.0000   -3.3251    0.0000 C   0  0  0  0  0  0  0  0  0  0  0  0
    2.3036   -3.3251    0.0000 O   0  0  0  0  0  0  0  0  0  0  0  0
    0.0000   -1.9950    0.0000 C   0  0  0  0  0  0  0  0  0  0  0  0
    3.4581   -3.9901    0.0000 C   0  0  0  0  0  0  0  0  0  0  0  0
    1.1491   -1.3300    0.0000 C   0  0  0  0  0  0  0  0  0  0  0  0
    4.6072   -3.3251    0.0000 C   0  0  0  0  0  0  0  0  0  0  0  0
    1.1491   -0.0000    0.0000 O   0  0  0  0  0  0  0  0  0  0  0  0
    2.3036   -1.9950    0.0000 O   0  0  0  0  0  0  0  0  0  0  0  0
    3.4527   -1.3300    0.0000 C   0  0  0  0  0  0  0  0  0  0  0  0
    4.6072   -1.9950    0.0000 C   0  0  0  0  0  0  0  0  0  0  0  0
  1  2  2  0  0  0  0 
  2  3  1  0  0  0  0 
  2  4  1  0  0  0  0 
  3  5  2  0  0  0  0 
  4  6  1  0  0  0  0 
  5  7  1  0  0  0  0 
  6  8  1  0  0  0  0 
  7  9  2  0  0  0  0 
  7 10  1  0  0  0  0 
 10 11  1  0  0  0  0 
 11 12  1  0  0  0  0 
M  END
> <Name>
DIETHYL MALEATE

> <Source>
DSSTox2DMolFile

> <Tox>
-0.979

> <CAS>
141-05-9

$$$$

  CDK

  9  8  0  0  0  0  0  0  0  0999 V2000
    1.1530   -0.0000    0.0000 O   0  0  0  0  0  0  0  0  0  0  0  0
    1.1530   -1.3257    0.0000 C   0  0  0  0  0  0  0  0  0  0  0  0
    2.2992   -1.9954    0.0000 O   0  0  0  0  0  0  0  0  0  0  0  0
    0.0000   -1.9954    0.0000 C   0  0  0  0  0  0  0  0  0  0  0  0
    3.4522   -1.3257    0.0000 C   0  0  0  0  0  0  0  0  0  0  0  0
    0.0000   -3.3210    0.0000 C   0  0  0  0  0  0  0  0  0  0  0  0
    4.6053   -1.9954    0.0000 C   0  0  0  0  0  0  0  0  0  0  0  0
    5.7514   -1.3257    0.0000 C   0  0  0  0  0  0  0  0  0  0  0  0
    6.9045   -1.9954    0.0000 C   0  0  0  0  0  0  0  0  0  0  0  0
  1  2  2  0  0  0  0 
  2  3  1  0  0  0  0 
  2  4  1  0  0  0  0 
  3  5  1  0  0  0  0 
  4  6  2  0  0  0  0 
  5  7  1  0  0  0  0 
  7  8  1  0  0  0  0 
  8  9  1  0  0  0  0 
M  END
> <Name>
BUTYL ACRYLATE

> <Source>
DSSTox2DMolFile

> <Tox>
0.736

> <CAS>
141-32-2

$$$$

  CDK

  4  3  0  0  0  0  0  0  0  0999 V2000
    0.0000   -0.0000    0.0000 O   0  0  0  0  0  0  0  0  0  0  0  0
    1.1513   -0.6638    0.0000 C   0  0  0  0  0  0  0  0  0  0  0  0
    2.3061   -0.0000    0.0000 C   0  0  0  0  0  0  0  0  0  0  0  0
    3.4575   -0.6638    0.0000 N   0  0  0  0  0  0  0  0  0  0  0  0
  1  2  1  0  0  0  0 
  2  3  1  0  0  0  0 
  3  4  1  0  0  0  0 
M  END
> <Name>
ETHANOLAMINE

> <Source>
DSSTox2DMolFile

> <Tox>
-0.394

> <CAS>
141-43-5

$$$$

  CDK

  9  8  0  0  0  0  0  0  0  0999 V2000
    4.4775    2.1455    0.0000 C   0  0  0  0  0  0  0  0  0  0  0  0
    3.4048    1.2127    0.0000 C   0  0  0  0  0  0  0  0  0  0  0  0
    2.7052    0.0000    0.0000 C   0  0  0  0  0  0  0  0  0  0  0  0
    4.4775    0.3265    0.0000 S   0  0  0  0  0  0  0  0  0  0  0  0
    2.7052    2.4253    0.0000 C   0  0  0  0  0  0  0  0  0  0  0  0
    1.3059    2.4253    0.0000 C   0  0  0  0  0  0  0  0  0  0  0  0
    1.5391    1.0727    0.0000 C   0  0  0  0  0  0  0  0  0  0  0  0
    0.0000    1.9589    0.0000 C   0  0  0  0  0  0  0  0  0  0  0  0
    1.5391    3.8245    0.0000 C   0  0  0  0  0  0  0  0  0  0  0  0
  1  2  1  0  0  0  0 
  2  3  1  0  0  0  0 
  2  4  1  0  0  0  0 
  2  5  1  0  0  0  0 
  5  6  1  0  0  0  0 
  6  7  1  0  0  0  0 
  6  8  1  0  0  0  0 
  6  9  1  0  0  0  0 
M  END
> <Name>
T-OCTYL MERCAPTAN

> <Source>
IndexNet2DMolFile

> <Tox>
0.716

> <CAS>
141-59-3

$$$$

  CDK

 17 16  0  0  0  0  0  0  0  0999 V2000
    1.3992    8.7685    0.0000 C   0  0  0  0  0  0  0  0  0  0  0  0
    1.3992    7.3692    0.0000 Si  0  0  0  0  0  0  0  0  0  0  0  0
    2.6119    6.6696    0.0000 C   0  0  0  0  0  0  0  0  0  0  0  0
    0.0000    7.6024    0.0000 C   0  0  0  0  0  0  0  0  0  0  0  0
    0.8862    6.0633    0.0000 O   0  0  0  0  0  0  0  0  0  0  0  0
    1.8190    4.9906    0.0000 Si  0  0  0  0  0  0  0  0  0  0  0  0
    3.1716    5.2238    0.0000 C   0  0  0  0  0  0  0  0  0  0  0  0
    0.6063    4.2910    0.0000 C   0  0  0  0  0  0  0  0  0  0  0  0
    2.2854    3.6380    0.0000 O   0  0  0  0  0  0  0  0  0  0  0  0
    3.6380    3.4048    0.0000 Si  0  0  0  0  0  0  0  0  0  0  0  0
    4.5708    4.4775    0.0000 C   0  0  0  0  0  0  0  0  0  0  0  0
    3.1716    2.0988    0.0000 C   0  0  0  0  0  0  0  0  0  0  0  0
    4.8506    2.7052    0.0000 O   0  0  0  0  0  0  0  0  0  0  0  0
    4.8506    1.3059    0.0000 Si  0  0  0  0  0  0  0  0  0  0  0  0
    3.6380    0.6063    0.0000 C   0  0  0  0  0  0  0  0  0  0  0  0
    5.3637    0.0000    0.0000 C   0  0  0  0  0  0  0  0  0  0  0  0
    6.2499    1.5391    0.0000 C   0  0  0  0  0  0  0  0  0  0  0  0
  1  2  1  0  0  0  0 
  2  3  1  0  0  0  0 
  2  4  1  0  0  0  0 
  2  5  1  0  0  0  0 
  5  6  1  0  0  0  0 
  6  7  1  0  0  0  0 
  6  8  1  0  0  0  0 
  6  9  1  0  0  0  0 
  9 10  1  0  0  0  0 
 10 11  1  0  0  0  0 
 10 12  1  0  0  0  0 
 10 13  1  0  0  0  0 
 13 14  1  0  0  0  0 
 14 15  1  0  0  0  0 
 14 16  1  0  0  0  0 
 14 17  1  0  0  0  0 
M  END
> <Name>
DECAMETHYLTETRASILOXANE

> <Source>
IndexNet2DMolFile

> <Tox>
-0.426

> <CAS>
141-62-8

$$$$

  CDK

 21 20  0  0  0  0  0  0  0  0999 V2000
    4.2443   10.3076    0.0000 C   0  0  0  0  0  0  0  0  0  0  0  0
    2.8451   10.3076    0.0000 Si  0  0  0  0  0  0  0  0  0  0  0  0
    2.1455   11.5203    0.0000 C   0  0  0  0  0  0  0  0  0  0  0  0
    3.1249    8.9550    0.0000 C   0  0  0  0  0  0  0  0  0  0  0  0
    1.5391    9.8412    0.0000 O   0  0  0  0  0  0  0  0  0  0  0  0
    1.3059    8.4886    0.0000 Si  0  0  0  0  0  0  0  0  0  0  0  0
    2.3787    7.5558    0.0000 C   0  0  0  0  0  0  0  0  0  0  0  0
    0.0000    8.9550    0.0000 C   0  0  0  0  0  0  0  0  0  0  0  0
    0.6063    7.2760    0.0000 O   0  0  0  0  0  0  0  0  0  0  0  0
    1.3059    6.0633    0.0000 Si  0  0  0  0  0  0  0  0  0  0  0  0
    2.7052    6.0633    0.0000 C   0  0  0  0  0  0  0  0  0  0  0  0
    0.0000    5.5503    0.0000 C   0  0  0  0  0  0  0  0  0  0  0  0
    1.5391    4.6641    0.0000 O   0  0  0  0  0  0  0  0  0  0  0  0
    2.8451    4.1977    0.0000 Si  0  0  0  0  0  0  0  0  0  0  0  0
    3.9178    5.0838    0.0000 C   0  0  0  0  0  0  0  0  0  0  0  0
    2.1455    2.9850    0.0000 C   0  0  0  0  0  0  0  0  0  0  0  0
    4.2443    3.0316    0.0000 O   0  0  0  0  0  0  0  0  0  0  0  0
    3.9178    1.2127    0.0000 Si  0  0  0  0  0  0  0  0  0  0  0  0
    5.3170    1.2127    0.0000 C   0  0  0  0  0  0  0  0  0  0  0  0
    3.2182    0.0000    0.0000 C   0  0  0  0  0  0  0  0  0  0  0  0
    2.6119    1.7257    0.0000 C   0  0  0  0  0  0  0  0  0  0  0  0
  1  2  1  0  0  0  0 
  2  3  1  0  0  0  0 
  2  4  1  0  0  0  0 
  2  5  1  0  0  0  0 
  5  6  1  0  0  0  0 
  6  7  1  0  0  0  0 
  6  8  1  0  0  0  0 
  6  9  1  0  0  0  0 
  9 10  1  0  0  0  0 
 10 11  1  0  0  0  0 
 10 12  1  0  0  0  0 
 10 13  1  0  0  0  0 
 13 14  1  0  0  0  0 
 14 15  1  0  0  0  0 
 14 16  1  0  0  0  0 
 14 17  1  0  0  0  0 
 17 18  1  0  0  0  0 
 18 19  1  0  0  0  0 
 18 20  1  0  0  0  0 
 18 21  1  0  0  0  0 
M  END
> <Name>
DODECAMETHYLPENTASILOXANE

> <Source>
IndexNet2DMolFile

> <Tox>
-0.991

> <CAS>
141-63-9

$$$$

  CDK

 15 14  0  0  0  0  0  0  0  0999 V2000
    5.4474   -1.3308    0.0000 C   0  0  0  0  0  0  0  0  0  0  0  0
    6.5830   -1.9873    0.0000 C   0  0  0  0  0  0  0  0  0  0  0  0
    4.2940   -1.9873    0.0000 C   0  0  0  0  0  0  0  0  0  0  0  0
    7.7363   -1.3308    0.0000 N   0  0  0  0  0  0  0  0  0  0  0  0
    6.5830   -3.3270    0.0000 O   0  0  0  0  0  0  0  0  0  0  0  0
    3.1584   -1.3308    0.0000 O   0  0  0  0  0  0  0  0  0  0  0  0
    4.2940   -3.3270    0.0000 C   0  0  0  0  0  0  0  0  0  0  0  0
    8.8719   -1.9873    0.0000 C   0  0  0  0  0  0  0  0  0  0  0  0
    7.7363   -0.0000    0.0000 C   0  0  0  0  0  0  0  0  0  0  0  0
    2.0051   -1.9873    0.0000 P   0  0  0  0  0  0  0  0  0  0  0  0
    2.6705   -3.1495    0.0000 O   0  0  0  0  0  0  0  0  0  0  0  0
    0.8340   -2.6705    0.0000 O   0  0  0  0  0  0  0  0  0  0  0  0
    1.3308   -0.8340    0.0000 O   0  0  0  0  0  0  0  0  0  0  0  0
    0.8340   -4.0012    0.0000 C   0  0  0  0  0  0  0  0  0  0  0  0
    0.0000   -0.8340    0.0000 C   0  0  0  0  0  0  0  0  0  0  0  0
  1  2  1  0  0  0  0 
  1  3  2  0  0  0  0 
  2  4  1  0  0  0  0 
  2  5  2  0  0  0  0 
  3  6  1  0  0  0  0 
  3  7  1  0  0  0  0 
  4  8  1  0  0  0  0 
  4  9  1  0  0  0  0 
 10  6  1  0  0  0  0 
 10 11  2  0  0  0  0 
 10 12  1  0  0  0  0 
 10 13  1  0  0  0  0 
 12 14  1  0  0  0  0 
 13 15  1  0  0  0  0 
M  END
> <Name>
DICROTOPHOS

> <Source>
DSSTox2DMolFile

> <Tox>
-3.796

> <CAS>
141-66-2

$$$$

  CDK

  6  5  0  0  0  0  0  0  0  0999 V2000
    4.6084   -1.9954    0.0000 C   0  0  0  0  0  0  0  0  0  0  0  0
    3.4563   -1.3318    0.0000 C   0  0  0  0  0  0  0  0  0  0  0  0
    3.4563   -0.0000    0.0000 O   0  0  0  0  0  0  0  0  0  0  0  0
    2.3042   -1.9954    0.0000 O   0  0  0  0  0  0  0  0  0  0  0  0
    1.1521   -1.3318    0.0000 C   0  0  0  0  0  0  0  0  0  0  0  0
    0.0000   -1.9954    0.0000 C   0  0  0  0  0  0  0  0  0  0  0  0
  1  2  1  0  0  0  0 
  2  3  2  0  0  0  0 
  2  4  1  0  0  0  0 
  4  5  1  0  0  0  0 
  5  6  1  0  0  0  0 
M  END
> <Name>
ETHYL ACETATE

> <Source>
DSSTox2DMolFile

> <Tox>
1.969

> <CAS>
141-78-6

$$$$

  CDK

  7  6  0  0  0  0  0  0  0  0999 V2000
    0.0000   -0.0000    0.0000 C   0  0  0  0  0  0  0  0  0  0  0  0
    1.1413   -0.6627    0.0000 C   0  0  0  0  0  0  0  0  0  0  0  0
    2.2826   -0.0000    0.0000 C   0  0  0  0  0  0  0  0  0  0  0  0
    1.1413   -1.9972    0.0000 O   0  0  0  0  0  0  0  0  0  0  0  0
    3.4607   -0.6627    0.0000 C   0  0  0  0  0  0  0  0  0  0  0  0
    4.6020   -0.0000    0.0000 C   0  0  0  0  0  0  0  0  0  0  0  0
    3.4607   -1.9972    0.0000 C   0  0  0  0  0  0  0  0  0  0  0  0
  1  2  1  0  0  0  0 
  2  3  1  0  0  0  0 
  2  4  2  0  0  0  0 
  3  5  2  0  0  0  0 
  5  6  1  0  0  0  0 
  5  7  1  0  0  0  0 
M  END
> <Name>
MESITYL OXIDE

> <Source>
DSSTox2DMolFile

> <Tox>
0.914

> <CAS>
141-79-7

$$$$

  CDK

  7  6  0  0  0  0  0  0  0  0999 V2000
    3.4555   -0.0000    0.0000 O   0  0  0  0  0  0  0  0  0  0  0  0
    3.4555   -1.3315    0.0000 C   0  0  0  0  0  0  0  0  0  0  0  0
    4.6073   -1.9950    0.0000 O   0  0  0  0  0  0  0  0  0  0  0  0
    2.3037   -1.9950    0.0000 C   0  0  0  0  0  0  0  0  0  0  0  0
    1.1518   -1.3315    0.0000 C   0  0  0  0  0  0  0  0  0  0  0  0
    0.0000   -1.9950    0.0000 O   0  0  0  0  0  0  0  0  0  0  0  0
    1.1518   -0.0000    0.0000 O   0  0  0  0  0  0  0  0  0  0  0  0
  1  2  2  0  0  0  0 
  2  3  1  0  0  0  0 
  2  4  1  0  0  0  0 
  4  5  1  0  0  0  0 
  5  6  1  0  0  0  0 
  5  7  2  0  0  0  0 
M  END
> <Name>
MALONIC ACID

> <Source>
DSSTox2DMolFile

> <Tox>
-2.824

> <CAS>
141-82-2

$$$$

  CDK

 10 10  0  0  0  0  0  0  0  0999 V2000
    6.9081   -1.9964    0.0000 C   0  0  0  0  0  0  0  0  0  0  0  0
    5.7544   -2.6596    0.0000 C   0  0  0  0  0  0  0  0  0  0  0  0
    4.6077   -1.9964    0.0000 C   0  0  0  0  0  0  0  0  0  0  0  0
    3.4540   -2.6596    0.0000 C   0  0  0  0  0  0  0  0  0  0  0  0
    4.6077   -0.6632    0.0000 C   0  0  0  0  0  0  0  0  0  0  0  0
    2.3004   -1.9964    0.0000 C   0  0  0  0  0  0  0  0  0  0  0  0
    3.4540   -0.0000    0.0000 C   0  0  0  0  0  0  0  0  0  0  0  0
    1.1537   -2.6596    0.0000 C   0  0  0  0  0  0  0  0  0  0  0  0
    2.3004   -0.6632    0.0000 C   0  0  0  0  0  0  0  0  0  0  0  0
    0.0000   -1.9964    0.0000 C   0  0  0  0  0  0  0  0  0  0  0  0
  1  2  1  0  0  0  0 
  2  3  1  0  0  0  0 
  3  4  2  0  0  0  0 
  3  5  1  0  0  0  0 
  4  6  1  0  0  0  0 
  7  5  2  0  0  0  0 
  6  8  1  0  0  0  0 
  6  9  2  0  0  0  0 
  9  7  1  0  0  0  0 
  8 10  1  0  0  0  0 
M  END
> <Name>
M-DIETHYLBENZENE

> <Source>
DSSTox2DMolFile

> <Tox>
0.053

> <CAS>
141-93-5

$$$$

  CDK

  9  8  0  0  0  0  0  0  0  0999 V2000
    3.4522   -1.3257    0.0000 C   0  0  0  0  0  0  0  0  0  0  0  0
    4.6053   -1.9954    0.0000 C   0  0  0  0  0  0  0  0  0  0  0  0
    2.2992   -1.9954    0.0000 O   0  0  0  0  0  0  0  0  0  0  0  0
    3.4522   -0.0000    0.0000 O   0  0  0  0  0  0  0  0  0  0  0  0
    5.7514   -1.3257    0.0000 C   0  0  0  0  0  0  0  0  0  0  0  0
    1.1530   -1.3257    0.0000 C   0  0  0  0  0  0  0  0  0  0  0  0
    6.9045   -1.9954    0.0000 C   0  0  0  0  0  0  0  0  0  0  0  0
    5.7514   -0.0000    0.0000 O   0  0  0  0  0  0  0  0  0  0  0  0
    0.0000   -1.9954    0.0000 C   0  0  0  0  0  0  0  0  0  0  0  0
  1  2  1  0  0  0  0 
  1  3  1  0  0  0  0 
  1  4  2  0  0  0  0 
  2  5  1  0  0  0  0 
  3  6  1  0  0  0  0 
  5  7  1  0  0  0  0 
  5  8  2  0  0  0  0 
  6  9  1  0  0  0  0 
M  END
> <Name>
ACETOACETIC ESTER

> <Source>
DSSTox2DMolFile

> <Tox>
-0.108

> <CAS>
141-97-9

$$$$

  CDK

  5  4  0  0  0  0  0  0  0  0999 V2000
    0.0000   -0.6638    0.0000 Cl  0  0  0  0  0  0  0  0  0  0  0  0
    1.1525   -0.0000    0.0000 C   0  0  0  0  0  0  0  0  0  0  0  0
    2.3050   -0.6638    0.0000 C   0  0  0  0  0  0  0  0  0  0  0  0
    3.4575   -0.0000    0.0000 C   0  0  0  0  0  0  0  0  0  0  0  0
    4.6099   -0.6638    0.0000 Cl  0  0  0  0  0  0  0  0  0  0  0  0
  1  2  1  0  0  0  0 
  2  3  1  0  0  0  0 
  3  4  1  0  0  0  0 
  4  5  1  0  0  0  0 
M  END
> <Name>
1,3-DICHLOROPROPANE

> <Source>
DSSTox2DMolFile

> <Tox>
1.260

> <CAS>
142-28-9

$$$$

  CDK

  8  7  0  0  0  0  0  0  0  0999 V2000
    0.0000   -1.9974    0.0000 C   0  0  0  0  0  0  0  0  0  0  0  0
    1.1542   -1.3339    0.0000 C   0  0  0  0  0  0  0  0  0  0  0  0
    2.3015   -1.9974    0.0000 C   0  0  0  0  0  0  0  0  0  0  0  0
    3.4558   -1.3339    0.0000 C   0  0  0  0  0  0  0  0  0  0  0  0
    4.6100   -1.9974    0.0000 C   0  0  0  0  0  0  0  0  0  0  0  0
    5.7573   -1.3339    0.0000 C   0  0  0  0  0  0  0  0  0  0  0  0
    6.9115   -1.9974    0.0000 O   0  0  0  0  0  0  0  0  0  0  0  0
    5.7573   -0.0000    0.0000 O   0  0  0  0  0  0  0  0  0  0  0  0
  1  2  1  0  0  0  0 
  2  3  1  0  0  0  0 
  3  4  1  0  0  0  0 
  4  5  1  0  0  0  0 
  5  6  1  0  0  0  0 
  6  7  1  0  0  0  0 
  6  8  2  0  0  0  0 
M  END
> <Name>
HEXANOIC ACID

> <Source>
DSSTox2DMolFile

> <Tox>
-1.362

> <CAS>
142-62-1

$$$$

  CDK

  7  6  0  0  0  0  0  0  0  0999 V2000
    1.1578   -0.0000    0.0000 C   0  0  0  0  0  0  0  0  0  0  0  0
    2.3086   -0.6586    0.0000 C   0  0  0  0  0  0  0  0  0  0  0  0
    0.0000   -0.6586    0.0000 C   0  0  0  0  0  0  0  0  0  0  0  0
    3.4664   -0.0000    0.0000 C   0  0  0  0  0  0  0  0  0  0  0  0
    4.6242   -0.6586    0.0000 C   0  0  0  0  0  0  0  0  0  0  0  0
    5.7751   -0.0000    0.0000 C   0  0  0  0  0  0  0  0  0  0  0  0
    6.9328   -0.6586    0.0000 C   0  0  0  0  0  0  0  0  0  0  0  0
  1  2  1  0  0  0  0 
  1  3  1  0  0  0  0 
  2  4  1  0  0  0  0 
  5  4  1  0  0  0  0 
  6  5  1  0  0  0  0 
  6  7  1  0  0  0  0 
M  END
> <Name>
N-HEPTANE

> <Source>
DSSTox2DMolFile

> <Tox>
1.663

> <CAS>
142-82-5

$$$$

  CDK

 21 20  0  0  0  0  0  0  0  0999 V2000
    3.4962   -1.4027    0.0000 C   0  0  0  0  0  0  0  0  0  0  0  0
    4.6685   -2.0307    0.0000 C   0  0  0  0  0  0  0  0  0  0  0  0
    2.3657   -2.0307    0.0000 O   0  0  0  0  0  0  0  0  0  0  0  0
    3.4962   -0.0000    0.0000 O   0  0  0  0  0  0  0  0  0  0  0  0
    5.8619   -1.4027    0.0000 C   0  0  0  0  0  0  0  0  0  0  0  0
    1.1724   -1.4027    0.0000 C   0  0  0  0  0  0  0  0  0  0  0  0
    6.9714   -2.0307    0.0000 C   0  0  0  0  0  0  0  0  0  0  0  0
    0.0000   -2.0307    0.0000 C   0  0  0  0  0  0  0  0  0  0  0  0
    1.1724   -0.0000    0.0000 C   0  0  0  0  0  0  0  0  0  0  0  0
    8.1647   -1.4027    0.0000 C   0  0  0  0  0  0  0  0  0  0  0  0
    9.3580   -2.0307    0.0000 C   0  0  0  0  0  0  0  0  0  0  0  0
   10.4676   -1.4027    0.0000 C   0  0  0  0  0  0  0  0  0  0  0  0
   11.6400   -2.0307    0.0000 C   0  0  0  0  0  0  0  0  0  0  0  0
   12.8542   -1.4027    0.0000 C   0  0  0  0  0  0  0  0  0  0  0  0
   13.9638   -2.0307    0.0000 C   0  0  0  0  0  0  0  0  0  0  0  0
   15.1361   -1.4027    0.0000 C   0  0  0  0  0  0  0  0  0  0  0  0
   16.3294   -2.0307    0.0000 C   0  0  0  0  0  0  0  0  0  0  0  0
   17.4390   -1.4027    0.0000 C   0  0  0  0  0  0  0  0  0  0  0  0
   18.6323   -2.0307    0.0000 C   0  0  0  0  0  0  0  0  0  0  0  0
   19.8256   -1.4027    0.0000 C   0  0  0  0  0  0  0  0  0  0  0  0
   20.9352   -2.0307    0.0000 C   0  0  0  0  0  0  0  0  0  0  0  0
  1  2  1  0  0  0  0 
  1  3  1  0  0  0  0 
  1  4  2  0  0  0  0 
  2  5  1  0  0  0  0 
  3  6  1  0  0  0  0 
  5  7  1  0  0  0  0 
  6  8  1  0  0  0  0 
  6  9  1  0  0  0  0 
  7 10  1  0  0  0  0 
 10 11  1  0  0  0  0 
 11 12  1  0  0  0  0 
 12 13  1  0  0  0  0 
 13 14  1  0  0  0  0 
 14 15  1  0  0  0  0 
 15 16  1  0  0  0  0 
 16 17  1  0  0  0  0 
 17 18  1  0  0  0  0 
 18 19  1  0  0  0  0 
 19 20  1  0  0  0  0 
 20 21  1  0  0  0  0 
M  END
> <Name>
ISOPROPYL PALMITATE

> <Source>
DSSTox2DMolFile

> <Tox>
-4.253

> <CAS>
142-91-6

$$$$

  CDK

 10  9  0  0  0  0  0  0  0  0999 V2000
    5.7596   -0.0000    0.0000 C   0  0  0  0  0  0  0  0  0  0  0  0
    6.9132   -0.6695    0.0000 C   0  0  0  0  0  0  0  0  0  0  0  0
    8.0667   -0.0000    0.0000 O   0  0  0  0  0  0  0  0  0  0  0  0
    6.9132   -2.0006    0.0000 O   0  0  0  0  0  0  0  0  0  0  0  0
    5.7596   -2.6620    0.0000 C   0  0  0  0  0  0  0  0  0  0  0  0
    4.6061   -2.0006    0.0000 C   0  0  0  0  0  0  0  0  0  0  0  0
    3.4606   -2.6620    0.0000 C   0  0  0  0  0  0  0  0  0  0  0  0
    2.3071   -2.0006    0.0000 C   0  0  0  0  0  0  0  0  0  0  0  0
    1.1535   -2.6620    0.0000 C   0  0  0  0  0  0  0  0  0  0  0  0
    0.0000   -2.0006    0.0000 C   0  0  0  0  0  0  0  0  0  0  0  0
  1  2  1  0  0  0  0 
  2  3  2  0  0  0  0 
  2  4  1  0  0  0  0 
  4  5  1  0  0  0  0 
  5  6  1  0  0  0  0 
  6  7  1  0  0  0  0 
  7  8  1  0  0  0  0 
  8  9  1  0  0  0  0 
  9 10  1  0  0  0  0 
M  END
> <Name>
N-HEXYL ACETATE

> <Source>
DSSTox2DMolFile

> <Tox>
0.121

> <CAS>
142-92-7

$$$$

  CDK

  9  8  0  0  0  0  0  0  0  0999 V2000
    0.0000   -0.6638    0.0000 C   0  0  0  0  0  0  0  0  0  0  0  0
    1.1525   -0.0000    0.0000 C   0  0  0  0  0  0  0  0  0  0  0  0
    2.3050   -0.6638    0.0000 C   0  0  0  0  0  0  0  0  0  0  0  0
    3.4575   -0.0000    0.0000 C   0  0  0  0  0  0  0  0  0  0  0  0
    4.6099   -0.6638    0.0000 O   0  0  0  0  0  0  0  0  0  0  0  0
    5.7624   -0.0000    0.0000 C   0  0  0  0  0  0  0  0  0  0  0  0
    6.9149   -0.6638    0.0000 C   0  0  0  0  0  0  0  0  0  0  0  0
    8.0674   -0.0000    0.0000 C   0  0  0  0  0  0  0  0  0  0  0  0
    9.2199   -0.6638    0.0000 C   0  0  0  0  0  0  0  0  0  0  0  0
  1  2  1  0  0  0  0 
  2  3  1  0  0  0  0 
  3  4  1  0  0  0  0 
  4  5  1  0  0  0  0 
  5  6  1  0  0  0  0 
  6  7  1  0  0  0  0 
  7  8  1  0  0  0  0 
  8  9  1  0  0  0  0 
M  END
> <Name>
DI-N-BUTYL ETHER

> <Source>
DSSTox2DMolFile

> <Tox>
0.779

> <CAS>
142-96-1

$$$$

  CDK

 14 13  0  0  0  0  0  0  0  0999 V2000
    0.0000   -1.9918    0.0000 C   0  0  0  0  0  0  0  0  0  0  0  0
    1.1480   -1.3278    0.0000 C   0  0  0  0  0  0  0  0  0  0  0  0
    2.3099   -1.9918    0.0000 C   0  0  0  0  0  0  0  0  0  0  0  0
    3.4579   -1.3278    0.0000 C   0  0  0  0  0  0  0  0  0  0  0  0
    4.6059   -1.9918    0.0000 C   0  0  0  0  0  0  0  0  0  0  0  0
    5.7678   -1.3278    0.0000 C   0  0  0  0  0  0  0  0  0  0  0  0
    6.9158   -1.9918    0.0000 C   0  0  0  0  0  0  0  0  0  0  0  0
    8.0639   -1.3278    0.0000 C   0  0  0  0  0  0  0  0  0  0  0  0
    9.2257   -1.9918    0.0000 C   0  0  0  0  0  0  0  0  0  0  0  0
   10.3738   -1.3278    0.0000 C   0  0  0  0  0  0  0  0  0  0  0  0
   11.5218   -1.9918    0.0000 C   0  0  0  0  0  0  0  0  0  0  0  0
   12.6836   -1.3278    0.0000 C   0  0  0  0  0  0  0  0  0  0  0  0
   13.8317   -1.9918    0.0000 O   0  0  0  0  0  0  0  0  0  0  0  0
   12.6836   -0.0000    0.0000 O   0  0  0  0  0  0  0  0  0  0  0  0
  1  2  1  0  0  0  0 
  2  3  1  0  0  0  0 
  3  4  1  0  0  0  0 
  4  5  1  0  0  0  0 
  5  6  1  0  0  0  0 
  6  7  1  0  0  0  0 
  7  8  1  0  0  0  0 
  8  9  1  0  0  0  0 
  9 10  1  0  0  0  0 
 10 11  1  0  0  0  0 
 11 12  1  0  0  0  0 
 12 13  1  0  0  0  0 
 12 14  2  0  0  0  0 
M  END
> <Name>
DODECANOIC ACID

> <Source>
DSSTox2DMolFile

> <Tox>
-4.796

> <CAS>
143-07-7

$$$$

  CDK

 10  9  0  0  0  0  0  0  0  0999 V2000
    0.0000   -0.6638    0.0000 C   0  0  0  0  0  0  0  0  0  0  0  0
    1.1513   -0.0000    0.0000 C   0  0  0  0  0  0  0  0  0  0  0  0
    2.3027   -0.6638    0.0000 C   0  0  0  0  0  0  0  0  0  0  0  0
    3.4540   -0.0000    0.0000 C   0  0  0  0  0  0  0  0  0  0  0  0
    4.6053   -0.6638    0.0000 C   0  0  0  0  0  0  0  0  0  0  0  0
    5.7670   -0.0000    0.0000 C   0  0  0  0  0  0  0  0  0  0  0  0
    6.9184   -0.6638    0.0000 C   0  0  0  0  0  0  0  0  0  0  0  0
    8.0697   -0.0000    0.0000 C   0  0  0  0  0  0  0  0  0  0  0  0
    9.2210   -0.6638    0.0000 C   0  0  0  0  0  0  0  0  0  0  0  0
   10.3724   -0.0000    0.0000 O   0  0  0  0  0  0  0  0  0  0  0  0
  1  2  1  0  0  0  0 
  2  3  1  0  0  0  0 
  3  4  1  0  0  0  0 
  4  5  1  0  0  0  0 
  5  6  1  0  0  0  0 
  6  7  1  0  0  0  0 
  7  8  1  0  0  0  0 
  8  9  1  0  0  0  0 
  9 10  1  0  0  0  0 
M  END
> <Name>
1-NONANOL

> <Source>
DSSTox2DMolFile

> <Tox>
-1.644

> <CAS>
143-08-8

$$$$

  CDK

 11 10  0  0  0  0  0  0  0  0999 V2000
    0.0000    0.0000    0.0000 C   0  0  0  0  0  0  0  0  0  0  0  0
    1.5200    0.0000    0.0000 C   0  0  0  0  0  0  0  0  0  0  0  0
    2.1200    0.7000    1.2200 C   0  0  0  0  0  0  0  0  0  0  0  0
    3.6400    0.7000    1.2200 C   0  0  0  0  0  0  0  0  0  0  0  0
    4.2400    1.3800    2.4600 C   0  0  0  0  0  0  0  0  0  0  0  0
    5.7600    1.3800    2.4600 C   0  0  0  0  0  0  0  0  0  0  0  0
    6.3600    2.0800    3.6800 C   0  0  0  0  0  0  0  0  0  0  0  0
    7.8800    2.0800    3.6800 C   0  0  0  0  0  0  0  0  0  0  0  0
    8.4800    2.7800    4.9000 C   0  0  0  0  0  0  0  0  0  0  0  0
   10.0000    2.7800    4.9000 C   0  0  0  0  0  0  0  0  0  0  0  0
   10.6600    3.6200    6.3800 S   0  0  0  0  0  0  0  0  0  0  0  0
  1  2  1  0  0  0  0 
  2  3  1  0  0  0  0 
  3  4  1  0  0  0  0 
  4  5  1  0  0  0  0 
  5  6  1  0  0  0  0 
  6  7  1  0  0  0  0 
  7  8  1  0  0  0  0 
  8  9  1  0  0  0  0 
  9 10  1  0  0  0  0 
 10 11  1  0  0  0  0 
M  END
> <Name>
1-DECANETHIOL

> <Source>
NIH3DMolFile

> <Tox>
-1.435

> <CAS>
143-10-2

$$$$

  CDK

 13 12  0  0  0  0  0  0  0  0999 V2000
    5.1729    0.5524    0.0000 C   0  0  0  0  0  0  0  0  0  0  0  0
    4.3191    0.0502    0.0000 C   0  0  0  0  0  0  0  0  0  0  0  0
    6.0266    0.0502    0.0000 C   0  0  0  0  0  0  0  0  0  0  0  0
    3.4653    0.5524    0.0000 C   0  0  0  0  0  0  0  0  0  0  0  0
    6.8804    0.5524    0.0000 C   0  0  0  0  0  0  0  0  0  0  0  0
    2.6115    0.0000    0.0000 C   0  0  0  0  0  0  0  0  0  0  0  0
    7.7844    0.0502    0.0000 C   0  0  0  0  0  0  0  0  0  0  0  0
    1.7076    0.5022    0.0000 C   0  0  0  0  0  0  0  0  0  0  0  0
    8.6382    0.5524    0.0000 C   0  0  0  0  0  0  0  0  0  0  0  0
    0.8538    0.0000    0.0000 C   0  0  0  0  0  0  0  0  0  0  0  0
    9.4920    0.0502    0.0000 C   0  0  0  0  0  0  0  0  0  0  0  0
    0.0000    0.5022    0.0000 C   0  0  0  0  0  0  0  0  0  0  0  0
   10.3457    0.5524    0.0000 Br  0  0  0  0  0  0  0  0  0  0  0  0
  1  2  1  0  0  0  0 
  1  3  1  0  0  0  0 
  2  4  1  0  0  0  0 
  3  5  1  0  0  0  0 
  4  6  1  0  0  0  0 
  5  7  1  0  0  0  0 
  6  8  1  0  0  0  0 
  7  9  1  0  0  0  0 
  8 10  1  0  0  0  0 
  9 11  1  0  0  0  0 
 10 12  1  0  0  0  0 
 11 13  1  0  0  0  0 
M  END
> <Name>
1-BROMO-N-DODECANE

> <Source>
NIST2DMolFile

> <Tox>
-2.406

> <CAS>
143-15-7

$$$$

  CDK

 17 16  0  0  0  0  0  0  0  0999 V2000
    0.0000   -0.6638    0.0000 N   0  0  0  0  0  0  0  0  0  0  0  0
    1.1433   -0.0000    0.0000 C   0  0  0  0  0  0  0  0  0  0  0  0
    2.3050   -0.6638    0.0000 C   0  0  0  0  0  0  0  0  0  0  0  0
    3.4667   -0.0000    0.0000 C   0  0  0  0  0  0  0  0  0  0  0  0
    4.6099   -0.6638    0.0000 C   0  0  0  0  0  0  0  0  0  0  0  0
    5.7532   -0.0000    0.0000 C   0  0  0  0  0  0  0  0  0  0  0  0
    6.9149   -0.6638    0.0000 C   0  0  0  0  0  0  0  0  0  0  0  0
    8.0581   -0.0000    0.0000 C   0  0  0  0  0  0  0  0  0  0  0  0
    9.2198   -0.6638    0.0000 C   0  0  0  0  0  0  0  0  0  0  0  0
   10.3815   -0.0000    0.0000 C   0  0  0  0  0  0  0  0  0  0  0  0
   11.5248   -0.6638    0.0000 C   0  0  0  0  0  0  0  0  0  0  0  0
   12.6681   -0.0000    0.0000 C   0  0  0  0  0  0  0  0  0  0  0  0
   13.8298   -0.6638    0.0000 C   0  0  0  0  0  0  0  0  0  0  0  0
   14.9730   -0.0000    0.0000 C   0  0  0  0  0  0  0  0  0  0  0  0
   16.1347   -0.6638    0.0000 C   0  0  0  0  0  0  0  0  0  0  0  0
   17.2964   -0.0000    0.0000 C   0  0  0  0  0  0  0  0  0  0  0  0
   18.4397   -0.6638    0.0000 C   0  0  0  0  0  0  0  0  0  0  0  0
  1  2  1  0  0  0  0 
  2  3  1  0  0  0  0 
  3  4  1  0  0  0  0 
  4  5  1  0  0  0  0 
  5  6  1  0  0  0  0 
  6  7  1  0  0  0  0 
  7  8  1  0  0  0  0 
  8  9  1  0  0  0  0 
  9 10  1  0  0  0  0 
 10 11  1  0  0  0  0 
 11 12  1  0  0  0  0 
 12 13  1  0  0  0  0 
 13 14  1  0  0  0  0 
 14 15  1  0  0  0  0 
 15 16  1  0  0  0  0 
 16 17  1  0  0  0  0 
M  END
> <Name>
N-HEXADECYLAMINE

> <Source>
DSSTox2DMolFile

> <Tox>
-3.876

> <CAS>
143-27-1

$$$$

  CDK

 21 25  0  0  0  0  0  0  0  0999 V2000
    3.0763   -2.1906    0.0000 C   0  0  0  0  0  0  0  0  0  0  0  0
    2.0351   -1.4536    0.0000 C   0  0  0  0  0  0  0  0  0  0  0  0
    4.7125   -2.1906    0.0000 C   0  0  0  0  0  0  0  0  0  0  0  0
    3.0763   -3.8741    0.0000 C   0  0  0  0  0  0  0  0  0  0  0  0
    2.4002   -2.4813    0.0000 Cl  0  0  0  0  0  0  0  0  0  0  0  0
    3.6781   -1.4536    0.0000 C   0  0  0  0  0  0  0  0  0  0  0  0
    2.0351   -3.1304    0.0000 C   0  0  0  0  0  0  0  0  0  0  0  0
    1.4942   -0.8181    0.0000 Cl  0  0  0  0  0  0  0  0  0  0  0  0
    4.7125   -3.8741    0.0000 C   0  0  0  0  0  0  0  0  0  0  0  0
    5.8416   -1.1359    0.0000 C   0  0  0  0  0  0  0  0  0  0  0  0
    5.5577   -2.5016    0.0000 Cl  0  0  0  0  0  0  0  0  0  0  0  0
    1.0818   -4.0837    0.0000 C   0  0  0  0  0  0  0  0  0  0  0  0
    3.4008   -4.7531    0.0000 Cl  0  0  0  0  0  0  0  0  0  0  0  0
    3.6781   -3.1304    0.0000 C   0  0  0  0  0  0  0  0  0  0  0  0
    4.1446   -0.7032    0.0000 Cl  0  0  0  0  0  0  0  0  0  0  0  0
    1.2440   -2.8600    0.0000 Cl  0  0  0  0  0  0  0  0  0  0  0  0
    5.0844   -4.6652    0.0000 Cl  0  0  0  0  0  0  0  0  0  0  0  0
    6.2270   -0.0000    0.0000 Cl  0  0  0  0  0  0  0  0  0  0  0  0
    6.7611   -1.8187    0.0000 Cl  0  0  0  0  0  0  0  0  0  0  0  0
    0.0000   -4.7531    0.0000 O   0  0  0  0  0  0  0  0  0  0  0  0
    4.3068   -2.7856    0.0000 Cl  0  0  0  0  0  0  0  0  0  0  0  0
  1  2  1  0  0  0  0 
  1  3  1  0  0  0  0 
  1  4  1  0  0  0  0 
  1  5  1  0  0  0  0 
  2  6  1  0  0  0  0 
  2  7  1  0  0  0  0 
  2  8  1  0  0  0  0 
  9  3  1  0  0  0  0 
  3 10  1  0  0  0  0 
  3 11  1  0  0  0  0 
  9  4  1  0  0  0  0 
  4 12  1  0  0  0  0 
  4 13  1  0  0  0  0 
 14  6  1  0  0  0  0 
  6 15  1  0  0  0  0 
  6 10  1  0  0  0  0 
 14  7  1  0  0  0  0 
  7 16  1  0  0  0  0 
  7 12  1  0  0  0  0 
  9 14  1  0  0  0  0 
  9 17  1  0  0  0  0 
 10 18  1  0  0  0  0 
 10 19  1  0  0  0  0 
 12 20  2  0  0  0  0 
 14 21  1  0  0  0  0 
M  END
> <Name>
KEPONE

> <Source>
DSSTox2DMolFile

> <Tox>
-6.648

> <CAS>
143-50-0

$$$$

  CDK

 10  9  0  0  0  0  0  0  0  0999 V2000
    1.3287   -0.8495    0.0000 C   0  0  0  0  0  0  0  0  0  0  0  0
    1.9876   -2.0039    0.0000 C   0  0  0  0  0  0  0  0  0  0  0  0
    0.0000   -0.8495    0.0000 O   0  0  0  0  0  0  0  0  0  0  0  0
    3.1366   -1.3287    0.0000 C   0  0  0  0  0  0  0  0  0  0  0  0
    2.6574   -3.1584    0.0000 C   0  0  0  0  0  0  0  0  0  0  0  0
    0.8495   -2.6574    0.0000 C   0  0  0  0  0  0  0  0  0  0  0  0
    4.2911   -2.0039    0.0000 C   0  0  0  0  0  0  0  0  0  0  0  0
    3.1366   -0.0000    0.0000 O   0  0  0  0  0  0  0  0  0  0  0  0
    5.4455   -1.3287    0.0000 C   0  0  0  0  0  0  0  0  0  0  0  0
    4.2911   -3.3327    0.0000 C   0  0  0  0  0  0  0  0  0  0  0  0
  1  2  1  0  0  0  0 
  1  3  1  0  0  0  0 
  2  4  1  0  0  0  0 
  2  5  1  0  0  0  0 
  2  6  1  0  0  0  0 
  4  7  1  0  0  0  0 
  4  8  1  0  0  0  0 
  7  9  1  0  0  0  0 
  7 10  1  0  0  0  0 
M  END
> <Name>
2,2,4-TRIMETHYL-1,3-PENTANEDIOL

> <Source>
DSSTox2DMolFile

> <Tox>
-2.347

> <CAS>
144-19-4

$$$$

  CDK

 11 12  0  0  0  0  0  0  0  0999 V2000
    3.4555   -0.0000    0.0000 O   0  0  0  0  0  0  0  0  0  0  0  0
    3.4555   -1.3315    0.0000 C   0  0  0  0  0  0  0  0  0  0  0  0
    4.6073   -1.9950    0.0000 C   0  0  0  0  0  0  0  0  0  0  0  0
    2.3037   -1.9950    0.0000 C   0  0  0  0  0  0  0  0  0  0  0  0
    4.6073   -3.3265    0.0000 C   0  0  0  0  0  0  0  0  0  0  0  0
    2.3037   -3.3265    0.0000 C   0  0  0  0  0  0  0  0  0  0  0  0
    1.1518   -1.3315    0.0000 N   0  0  0  0  0  0  0  0  0  0  0  0
    3.4555   -3.9899    0.0000 C   0  0  0  0  0  0  0  0  0  0  0  0
    1.1518   -3.9899    0.0000 C   0  0  0  0  0  0  0  0  0  0  0  0
    0.0000   -1.9950    0.0000 C   0  0  0  0  0  0  0  0  0  0  0  0
    0.0000   -3.3265    0.0000 C   0  0  0  0  0  0  0  0  0  0  0  0
  1  2  1  0  0  0  0 
  2  3  2  0  0  0  0 
  2  4  1  0  0  0  0 
  3  5  1  0  0  0  0 
  6  4  1  0  0  0  0 
  7  4  2  0  0  0  0 
  5  8  2  0  0  0  0 
  8  6  1  0  0  0  0 
  6  9  2  0  0  0  0 
 10  7  1  0  0  0  0 
  9 11  1  0  0  0  0 
 11 10  2  0  0  0  0 
M  END
> <Name>
8-QUINOLINOL

> <Source>
DSSTox2DMolFile

> <Tox>
-2.780

> <CAS>
148-24-3

$$$$

  CDK

 14 16  0  0  0  0  0  0  0  0999 V2000
    4.1589   -0.2551    0.0000 N   0  0  0  0  0  0  0  0  0  0  0  0
    3.3781   -1.3296    0.0000 C   0  0  0  0  0  0  0  0  0  0  0  0
    5.4266   -0.6648    0.0000 C   0  0  0  0  0  0  0  0  0  0  0  0
    4.1589   -2.4041    0.0000 N   0  0  0  0  0  0  0  0  0  0  0  0
    2.0485   -1.3296    0.0000 C   0  0  0  0  0  0  0  0  0  0  0  0
    5.4266   -1.9944    0.0000 C   0  0  0  0  0  0  0  0  0  0  0  0
    6.5784   -0.0000    0.0000 C   0  0  0  0  0  0  0  0  0  0  0  0
    1.2678   -2.4041    0.0000 C   0  0  0  0  0  0  0  0  0  0  0  0
    1.2678   -0.2551    0.0000 N   0  0  0  0  0  0  0  0  0  0  0  0
    6.5784   -2.6592    0.0000 C   0  0  0  0  0  0  0  0  0  0  0  0
    7.7302   -0.6648    0.0000 C   0  0  0  0  0  0  0  0  0  0  0  0
    0.0000   -1.9944    0.0000 S   0  0  0  0  0  0  0  0  0  0  0  0
    0.0000   -0.6648    0.0000 C   0  0  0  0  0  0  0  0  0  0  0  0
    7.7302   -1.9944    0.0000 C   0  0  0  0  0  0  0  0  0  0  0  0
  1  2  1  0  0  0  0 
  1  3  1  0  0  0  0 
  2  4  2  0  0  0  0 
  2  5  1  0  0  0  0 
  6  3  2  0  0  0  0 
  3  7  1  0  0  0  0 
  4  6  1  0  0  0  0 
  5  8  2  0  0  0  0 
  5  9  1  0  0  0  0 
  6 10  1  0  0  0  0 
  7 11  2  0  0  0  0 
  8 12  1  0  0  0  0 
 13  9  2  0  0  0  0 
 14 10  2  0  0  0  0 
 11 14  1  0  0  0  0 
 12 13  1  0  0  0  0 
M  END
> <Name>
THIABENDAZOLE

> <Source>
DSSTox2DMolFile

> <Tox>
-8.398

> <CAS>
148-79-8

$$$$

  CDK

 10 10  0  0  0  0  0  0  0  0999 V2000
    1.1535   -1.1535    0.0000 Si  0  0  0  0  0  0  0  0  0  0  0  0
    0.0000   -1.8087    0.0000 C   0  0  0  0  0  0  0  0  0  0  0  0
    1.8087   -2.3070    0.0000 C   0  0  0  0  0  0  0  0  0  0  0  0
    2.2932   -0.4799    0.0000 Cl  0  0  0  0  0  0  0  0  0  0  0  0
    0.4799   -0.0000    0.0000 Cl  0  0  0  0  0  0  0  0  0  0  0  0
    3.1422   -2.3070    0.0000 C   0  0  0  0  0  0  0  0  0  0  0  0
    1.1535   -3.4605    0.0000 C   0  0  0  0  0  0  0  0  0  0  0  0
    3.8112   -3.4605    0.0000 C   0  0  0  0  0  0  0  0  0  0  0  0
    1.8087   -4.6140    0.0000 C   0  0  0  0  0  0  0  0  0  0  0  0
    3.1422   -4.6140    0.0000 C   0  0  0  0  0  0  0  0  0  0  0  0
  1  2  1  0  0  0  0 
  1  3  1  0  0  0  0 
  1  4  1  0  0  0  0 
  1  5  1  0  0  0  0 
  3  6  2  0  0  0  0 
  3  7  1  0  0  0  0 
  6  8  1  0  0  0  0 
  7  9  2  0  0  0  0 
  8 10  2  0  0  0  0 
  9 10  1  0  0  0  0 
M  END
> <Name>
DICHLOROMETHYLPHENYLSILANE

> <Source>
DSSTox2DMolFile

> <Tox>
-0.312

> <CAS>
149-74-6

$$$$

  CDK

  9  9  0  0  0  0  0  0  0  0999 V2000
    5.7605   -2.6614    0.0000 O   0  0  0  0  0  0  0  0  0  0  0  0
    4.6084   -1.9989    0.0000 C   0  0  0  0  0  0  0  0  0  0  0  0
    3.4563   -2.6614    0.0000 C   0  0  0  0  0  0  0  0  0  0  0  0
    4.6084   -0.6682    0.0000 C   0  0  0  0  0  0  0  0  0  0  0  0
    2.3042   -1.9989    0.0000 C   0  0  0  0  0  0  0  0  0  0  0  0
    3.4563   -0.0000    0.0000 C   0  0  0  0  0  0  0  0  0  0  0  0
    1.1521   -2.6614    0.0000 O   0  0  0  0  0  0  0  0  0  0  0  0
    2.3042   -0.6682    0.0000 C   0  0  0  0  0  0  0  0  0  0  0  0
    0.0000   -1.9989    0.0000 C   0  0  0  0  0  0  0  0  0  0  0  0
  1  2  1  0  0  0  0 
  2  3  2  0  0  0  0 
  2  4  1  0  0  0  0 
  3  5  1  0  0  0  0 
  6  4  2  0  0  0  0 
  5  7  1  0  0  0  0 
  5  8  2  0  0  0  0 
  8  6  1  0  0  0  0 
  7  9  1  0  0  0  0 
M  END
> <Name>
M-METHOXYPHENOL

> <Source>
DSSTox2DMolFile

> <Tox>
-1.708

> <CAS>
150-19-6

$$$$

  CDK

  5  4  0  0  0  0  0  0  0  0999 V2000
    1.8651    1.4934   -1.2478 N   0  0  0  0  0  0  0  0  0  0  0  0
    1.4986    0.1161   -1.5564 C   0  0  0  0  0  0  0  0  0  0  0  0
    0.8844   -0.5573   -0.3318 C   0  0  0  0  0  0  0  0  0  0  0  0
    0.5221   -1.9510   -0.6244 C   0  0  0  0  0  0  0  0  0  0  0  0
    0.2354   -3.0519   -0.8534 N   0  0  0  0  0  0  0  0  0  0  0  0
  1  2  1  0  0  0  0 
  2  3  1  0  0  0  0 
  3  4  1  0  0  0  0 
  5  4  3  0  0  0  0 
M  END
> <Name>
Propanenitrile, 3-amino-

> <Source>
Chemidplus3DMolFile

> <Tox>
-0.066

> <CAS>
151-18-8

$$$$

  CDK

  3  3  0  0  0  0  0  0  0  0999 V2000
    0.0000   -1.1518    0.0000 C   0  0  0  0  0  0  0  0  0  0  0  0
    0.6650   -0.0000    0.0000 C   0  0  0  0  0  0  0  0  0  0  0  0
    1.3300   -1.1518    0.0000 N   0  0  0  0  0  0  0  0  0  0  0  0
  1  2  1  0  0  0  0 
  1  3  1  0  0  0  0 
  2  3  1  0  0  0  0 
M  END
> <Name>
AZIRIDINE

> <Source>
DSSTox2DMolFile

> <Tox>
2.328

> <CAS>
151-56-4

$$$$

  CDK

  7  6  0  0  0  0  0  0  0  0999 V2000
    0.0000   -1.9956    0.0000 F   0  0  0  0  0  0  0  0  0  0  0  0
    1.3304   -1.9956    0.0000 C   0  0  0  0  0  0  0  0  0  0  0  0
    2.6608   -1.9956    0.0000 F   0  0  0  0  0  0  0  0  0  0  0  0
    1.3304   -3.3260    0.0000 F   0  0  0  0  0  0  0  0  0  0  0  0
    1.3304   -0.6652    0.0000 C   0  0  0  0  0  0  0  0  0  0  0  0
    0.1796   -0.0000    0.0000 Cl  0  0  0  0  0  0  0  0  0  0  0  0
    2.4812   -0.0000    0.0000 Br  0  0  0  0  0  0  0  0  0  0  0  0
  1  2  1  0  0  0  0 
  2  3  1  0  0  0  0 
  2  4  1  0  0  0  0 
  2  5  1  0  0  0  0 
  5  6  1  0  0  0  0 
  5  7  1  0  0  0  0 
M  END
> <Name>
HALOTHANE

> <Source>
DSSTox2DMolFile

> <Tox>
2.480

> <CAS>
151-67-7

$$$$

  CDK

 17 16  0  0  0  0  0  0  0  0999 V2000
   -1.6440   -0.2254    0.4748 P   0  0  0  0  0  0  0  0  0  0  0  0
   -1.9444   -0.8917    1.7408 O   0  0  0  0  0  0  0  0  0  0  0  0
   -2.3589    1.3768    0.2507 N   0  0  0  0  0  0  0  0  0  0  0  0
   -2.1621   -1.1062   -0.9834 N   0  0  0  0  0  0  0  0  0  0  0  0
   -0.0004    0.0008    0.2190 O   0  0  0  0  0  0  0  0  0  0  0  0
   -2.8901    2.0435    1.4540 C   0  0  0  0  0  0  0  0  0  0  0  0
   -1.8884    2.3334   -0.7669 C   0  0  0  0  0  0  0  0  0  0  0  0
   -1.2991   -1.2420   -2.1685 C   0  0  0  0  0  0  0  0  0  0  0  0
   -2.9763   -2.3118   -0.7385 C   0  0  0  0  0  0  0  0  0  0  0  0
    1.6432    0.2256    0.4750 P   0  0  0  0  0  0  0  0  0  0  0  0
    1.9446    0.8917    1.7408 O   0  0  0  0  0  0  0  0  0  0  0  0
    2.1625    1.1058   -0.9831 N   0  0  0  0  0  0  0  0  0  0  0  0
    2.3570   -1.3771    0.2508 N   0  0  0  0  0  0  0  0  0  0  0  0
    1.2987    1.2458   -2.1672 C   0  0  0  0  0  0  0  0  0  0  0  0
    2.9817    2.3079   -0.7378 C   0  0  0  0  0  0  0  0  0  0  0  0
    1.8865   -2.3335   -0.7670 C   0  0  0  0  0  0  0  0  0  0  0  0
    2.8898   -2.0437    1.4533 C   0  0  0  0  0  0  0  0  0  0  0  0
  1  2  2  0  0  0  0 
  1  3  1  0  0  0  0 
  1  4  1  0  0  0  0 
  1  5  1  0  0  0  0 
  3  6  1  0  0  0  0 
  3  7  1  0  0  0  0 
  4  8  1  0  0  0  0 
  4  9  1  0  0  0  0 
  5 10  1  0  0  0  0 
 10 11  2  0  0  0  0 
 10 12  1  0  0  0  0 
 10 13  1  0  0  0  0 
 12 14  1  0  0  0  0 
 12 15  1  0  0  0  0 
 13 16  1  0  0  0  0 
 13 17  1  0  0  0  0 
M  END
> <Name>
OCTAMETHYLPYROPHOSPHORAMIDE

> <Source>
DougDB3DMolFile

> <Tox>
-3.000

> <CAS>
152-16-9

$$$$

  CDK

  4  3  0  0  0  0  0  0  0  0999 V2000
    0.0000   -1.1443    0.0000 Cl  0  0  0  0  0  0  0  0  0  0  0  0
    0.6657   -0.0000    0.0000 C   0  0  0  0  0  0  0  0  0  0  0  0
    2.0079   -0.0000    0.0000 C   0  0  0  0  0  0  0  0  0  0  0  0
    2.6737   -1.1443    0.0000 Cl  0  0  0  0  0  0  0  0  0  0  0  0
  1  2  1  0  0  0  0 
  2  3  2  0  0  0  0 
  4  3  1  0  0  0  0 
M  END
> <Name>
1,2-DICHLOROETHENE (CIS)

> <Source>
DSSTox2DMolFile

> <Tox>
2.301

> <CAS>
156-59-2

$$$$

  CDK

  4  3  0  0  0  0  0  0  0  0999 V2000
    0.0000   -2.2971    0.0000 Cl  0  0  0  0  0  0  0  0  0  0  0  0
    0.6704   -1.1486    0.0000 C   0  0  0  0  0  0  0  0  0  0  0  0
    2.0006   -1.1486    0.0000 C   0  0  0  0  0  0  0  0  0  0  0  0
    2.6711   -0.0000    0.0000 Cl  0  0  0  0  0  0  0  0  0  0  0  0
  1  2  1  0  0  0  0 
  2  3  2  0  0  0  0 
  3  4  1  0  0  0  0 
M  END
> <Name>
1,2-DICHLOROETHENE (TRANS)

> <Source>
DSSTox2DMolFile

> <Tox>
2.520

> <CAS>
156-60-5

$$$$

  CDK

  5  4  0  0  0  0  0  0  0  0999 V2000
   -1.3683   -0.5451   -0.2629 C   0  0  0  0  0  0  0  0  0  0  0  0
    0.0416   -0.6569    0.3110 C   0  0  0  0  0  0  0  0  0  0  0  0
   -1.9463    0.6493    0.2123 O   0  0  0  0  0  0  0  0  0  0  0  0
    1.0200    0.2723   -0.4043 C   0  0  0  0  0  0  0  0  0  0  0  0
    2.4002    0.2157    0.1084 N   0  0  0  0  0  0  0  0  0  0  0  0
  1  2  1  0  0  0  0 
  1  3  1  0  0  0  0 
  2  4  1  0  0  0  0 
  4  5  1  0  0  0  0 
M  END
> <Name>
PROPANOLAMINE

> <Source>
DougDB3DMolFile

> <Tox>
-1.113

> <CAS>
156-87-6

$$$$

  CDK

 24 28  0  0  0  0  0  0  0  0999 V2000
    0.3920    2.1898    0.4408 Si  0  0  0  0  0  0  0  0  0  0  0  0
    1.6051    1.1176    0.8176 O   0  0  0  0  0  0  0  0  0  0  0  0
   -1.1187    1.6076    0.8158 O   0  0  0  0  0  0  0  0  0  0  0  0
    0.7202    3.9402    1.2121 C   0  0  0  0  0  0  0  0  0  0  0  0
    0.5062    2.8746   -1.3651 C   0  0  0  0  0  0  0  0  0  0  0  0
    2.1943   -0.3922    0.4508 Si  0  0  0  0  0  0  0  0  0  0  0  0
   -2.1935    0.3932    0.4519 Si  0  0  0  0  0  0  0  0  0  0  0  0
    0.5593    4.9278    0.0412 C   0  0  0  0  0  0  0  0  0  0  0  0
    1.1388    4.2715   -1.2213 C   0  0  0  0  0  0  0  0  0  0  0  0
    1.1193   -1.6070    0.8133 O   0  0  0  0  0  0  0  0  0  0  0  0
    3.9345   -0.7176    1.2464 C   0  0  0  0  0  0  0  0  0  0  0  0
    2.9043   -0.5060   -1.3454 C   0  0  0  0  0  0  0  0  0  0  0  0
   -1.6043   -1.1171    0.8176 O   0  0  0  0  0  0  0  0  0  0  0  0
   -3.9344    0.7167    1.2465 C   0  0  0  0  0  0  0  0  0  0  0  0
   -2.9022    0.5079   -1.3447 C   0  0  0  0  0  0  0  0  0  0  0  0
   -0.3916   -2.1891    0.4397 Si  0  0  0  0  0  0  0  0  0  0  0  0
    4.9378   -0.5563    0.0892 C   0  0  0  0  0  0  0  0  0  0  0  0
    4.2995   -1.1375   -1.1819 C   0  0  0  0  0  0  0  0  0  0  0  0
   -4.9366    0.5525    0.0887 C   0  0  0  0  0  0  0  0  0  0  0  0
   -4.2992    1.1355   -1.1818 C   0  0  0  0  0  0  0  0  0  0  0  0
   -0.5079   -2.8749   -1.3655 C   0  0  0  0  0  0  0  0  0  0  0  0
   -0.7192   -3.9391    1.2125 C   0  0  0  0  0  0  0  0  0  0  0  0
   -1.1424   -4.2709   -1.2201 C   0  0  0  0  0  0  0  0  0  0  0  0
   -0.5614   -4.9273    0.0417 C   0  0  0  0  0  0  0  0  0  0  0  0
  1  2  1  0  0  0  0 
  1  3  1  0  0  0  0 
  1  4  1  0  0  0  0 
  1  5  1  0  0  0  0 
  6  2  1  0  0  0  0 
  7  3  1  0  0  0  0 
  4  8  1  0  0  0  0 
  5  9  1  0  0  0  0 
  6 10  1  0  0  0  0 
  6 11  1  0  0  0  0 
  6 12  1  0  0  0  0 
  7 13  1  0  0  0  0 
  7 14  1  0  0  0  0 
  7 15  1  0  0  0  0 
  8  9  1  0  0  0  0 
 16 10  1  0  0  0  0 
 11 17  1  0  0  0  0 
 12 18  1  0  0  0  0 
 16 13  1  0  0  0  0 
 14 19  1  0  0  0  0 
 15 20  1  0  0  0  0 
 16 21  1  0  0  0  0 
 16 22  1  0  0  0  0 
 17 18  1  0  0  0  0 
 19 20  1  0  0  0  0 
 21 23  1  0  0  0  0 
 22 24  1  0  0  0  0 
 23 24  1  0  0  0  0 
M  END
> <Name>
TETRACYCLOTETRAMETHYLENECYCLOTETRASILOXANE

> <Source>
Chemidplus3DMolFile

> <Tox>
-0.607

> <CAS>
177-49-1

$$$$

  CDK

  7  9  0  0  0  0  0  0  0  0999 V2000
   -0.7077   -0.9131   -0.3018 C   0  0  0  0  0  0  0  0  0  0  0  0
    0.7076   -0.9131    0.3019 C   0  0  0  0  0  0  0  0  0  0  0  0
   -1.1089    0.5362   -0.5137 C   0  0  0  0  0  0  0  0  0  0  0  0
   -1.9053   -0.3417    0.4110 C   0  0  0  0  0  0  0  0  0  0  0  0
    1.1090    0.5361    0.5137 C   0  0  0  0  0  0  0  0  0  0  0  0
    1.9053   -0.3418   -0.4112 C   0  0  0  0  0  0  0  0  0  0  0  0
    0.0001    1.4373    0.0000 C   0  0  0  0  0  0  0  0  0  0  0  0
  1  2  1  0  0  0  0 
  1  3  1  0  0  0  0 
  1  4  1  0  0  0  0 
  2  5  1  0  0  0  0 
  2  6  1  0  0  0  0 
  3  4  1  0  0  0  0 
  3  7  1  0  0  0  0 
  5  6  1  0  0  0  0 
  5  7  1  0  0  0  0 
M  END
> <Name>
TRICYCLO(4.1.0.2,4)HEPTANE

> <Source>
Chemidplus3DMolFile

> <Tox>
1.573

> <CAS>
187-26-8

$$$$

  CDK

 22 27  0  0  0  0  0  0  0  0999 V2000
    3.4437   -4.6628    0.0000 C   0  0  0  0  0  0  0  0  0  0  0  0
    4.5870   -4.0016    0.0000 C   0  0  0  0  0  0  0  0  0  0  0  0
    2.3004   -4.0016    0.0000 C   0  0  0  0  0  0  0  0  0  0  0  0
    3.4437   -5.9990    0.0000 C   0  0  0  0  0  0  0  0  0  0  0  0
    4.5870   -2.6586    0.0000 C   0  0  0  0  0  0  0  0  0  0  0  0
    5.7441   -4.6628    0.0000 C   0  0  0  0  0  0  0  0  0  0  0  0
    2.3004   -2.6586    0.0000 C   0  0  0  0  0  0  0  0  0  0  0  0
    1.1433   -4.6628    0.0000 C   0  0  0  0  0  0  0  0  0  0  0  0
    2.3004   -6.6602    0.0000 C   0  0  0  0  0  0  0  0  0  0  0  0
    4.5870   -6.6602    0.0000 C   0  0  0  0  0  0  0  0  0  0  0  0
    5.7441   -1.9974    0.0000 C   0  0  0  0  0  0  0  0  0  0  0  0
    3.4437   -1.9974    0.0000 C   0  0  0  0  0  0  0  0  0  0  0  0
    6.8875   -4.0016    0.0000 C   0  0  0  0  0  0  0  0  0  0  0  0
    5.7441   -5.9990    0.0000 C   0  0  0  0  0  0  0  0  0  0  0  0
    1.1433   -1.9974    0.0000 C   0  0  0  0  0  0  0  0  0  0  0  0
    0.0000   -4.0016    0.0000 C   0  0  0  0  0  0  0  0  0  0  0  0
    1.1433   -5.9990    0.0000 C   0  0  0  0  0  0  0  0  0  0  0  0
    5.7441   -0.6612    0.0000 C   0  0  0  0  0  0  0  0  0  0  0  0
    6.8875   -2.6586    0.0000 C   0  0  0  0  0  0  0  0  0  0  0  0
    3.4437   -0.6612    0.0000 C   0  0  0  0  0  0  0  0  0  0  0  0
    0.0000   -2.6586    0.0000 C   0  0  0  0  0  0  0  0  0  0  0  0
    4.5870   -0.0000    0.0000 C   0  0  0  0  0  0  0  0  0  0  0  0
  1  2  1  0  0  0  0 
  1  3  1  0  0  0  0 
  1  4  2  0  0  0  0 
  2  5  1  0  0  0  0 
  2  6  2  0  0  0  0 
  3  7  2  0  0  0  0 
  3  8  1  0  0  0  0 
  4  9  1  0  0  0  0 
  4 10  1  0  0  0  0 
  5 11  2  0  0  0  0 
  5 12  1  0  0  0  0 
  6 13  1  0  0  0  0 
  6 14  1  0  0  0  0 
  7 12  1  0  0  0  0 
  7 15  1  0  0  0  0 
  8 16  2  0  0  0  0 
  8 17  1  0  0  0  0 
  9 17  2  0  0  0  0 
 14 10  2  0  0  0  0 
 11 18  1  0  0  0  0 
 11 19  1  0  0  0  0 
 12 20  2  0  0  0  0 
 13 19  2  0  0  0  0 
 15 21  2  0  0  0  0 
 21 16  1  0  0  0  0 
 22 18  2  0  0  0  0 
 20 22  1  0  0  0  0 
M  END
> <Name>
BENZO(GHI)PERYLENE

> <Source>
DSSTox2DMolFile

> <Tox>
-10.000

> <CAS>
191-24-2

$$$$

  CDK

 20 24  0  0  0  0  0  0  0  0999 V2000
    0.0000    0.0000    0.0000 C   0  0  0  0  0  0  0  0  0  0  0  0
   -0.6800   -1.2000   -0.2600 C   0  0  0  0  0  0  0  0  0  0  0  0
   -0.7200    1.1600    0.2600 C   0  0  0  0  0  0  0  0  0  0  0  0
   -2.1000   -1.2600   -0.2800 C   0  0  0  0  0  0  0  0  0  0  0  0
    0.0800   -2.3600   -0.5200 C   0  0  0  0  0  0  0  0  0  0  0  0
   -2.1200    1.1400    0.2600 C   0  0  0  0  0  0  0  0  0  0  0  0
   -2.8400   -0.0400   -0.0200 C   0  0  0  0  0  0  0  0  0  0  0  0
   -2.7600   -2.5000   -0.5400 C   0  0  0  0  0  0  0  0  0  0  0  0
   -0.5600   -3.5600   -0.7800 C   0  0  0  0  0  0  0  0  0  0  0  0
   -4.2800   -0.1000   -0.0200 C   0  0  0  0  0  0  0  0  0  0  0  0
   -4.2000   -2.5600   -0.5400 C   0  0  0  0  0  0  0  0  0  0  0  0
   -1.9600   -3.6400   -0.8000 C   0  0  0  0  0  0  0  0  0  0  0  0
   -4.9400   -1.3400   -0.2800 C   0  0  0  0  0  0  0  0  0  0  0  0
   -5.0800    1.0400    0.2000 C   0  0  0  0  0  0  0  0  0  0  0  0
   -4.9200   -3.7400   -0.7800 C   0  0  0  0  0  0  0  0  0  0  0  0
   -6.3600   -1.4000   -0.3000 C   0  0  0  0  0  0  0  0  0  0  0  0
   -6.4800    0.9800    0.1800 C   0  0  0  0  0  0  0  0  0  0  0  0
   -6.3200   -3.7800   -0.7600 C   0  0  0  0  0  0  0  0  0  0  0  0
   -7.0400   -2.6000   -0.5400 C   0  0  0  0  0  0  0  0  0  0  0  0
   -7.1200   -0.2400   -0.0600 C   0  0  0  0  0  0  0  0  0  0  0  0
  1  2  2  0  0  0  0 
  1  3  1  0  0  0  0 
  2  4  1  0  0  0  0 
  2  5  1  0  0  0  0 
  6  3  2  0  0  0  0 
  4  7  2  0  0  0  0 
  4  8  1  0  0  0  0 
  9  5  2  0  0  0  0 
  7  6  1  0  0  0  0 
  7 10  1  0  0  0  0 
 11  8  1  0  0  0  0 
  8 12  2  0  0  0  0 
 12  9  1  0  0  0  0 
 10 13  2  0  0  0  0 
 10 14  1  0  0  0  0 
 13 11  1  0  0  0  0 
 11 15  2  0  0  0  0 
 13 16  1  0  0  0  0 
 17 14  2  0  0  0  0 
 15 18  1  0  0  0  0 
 19 16  1  0  0  0  0 
 16 20  2  0  0  0  0 
 20 17  1  0  0  0  0 
 18 19  2  0  0  0  0 
M  END
> <Name>
PERYLENE

> <Source>
NIH3DMolFile

> <Tox>
-8.280

> <CAS>
198-55-0

$$$$

  CDK

 20 24  0  0  0  0  0  0  0  0999 V2000
    4.4203   -1.9507    0.0000 C   0  0  0  0  0  0  0  0  0  0  0  0
    4.4203   -0.6800    0.0000 C   0  0  0  0  0  0  0  0  0  0  0  0
    3.3108   -2.5860    0.0000 C   0  0  0  0  0  0  0  0  0  0  0  0
    5.5388   -2.5860    0.0000 C   0  0  0  0  0  0  0  0  0  0  0  0
    2.1923   -0.6800    0.0000 C   0  0  0  0  0  0  0  0  0  0  0  0
    5.5388   -0.0268    0.0000 C   0  0  0  0  0  0  0  0  0  0  0  0
    2.1923   -1.9507    0.0000 C   0  0  0  0  0  0  0  0  0  0  0  0
    3.3108   -3.8566    0.0000 C   0  0  0  0  0  0  0  0  0  0  0  0
    6.6573   -1.9507    0.0000 C   0  0  0  0  0  0  0  0  0  0  0  0
    5.5388   -3.8566    0.0000 C   0  0  0  0  0  0  0  0  0  0  0  0
    1.0738   -0.0268    0.0000 C   0  0  0  0  0  0  0  0  0  0  0  0
    6.6573   -0.6800    0.0000 C   0  0  0  0  0  0  0  0  0  0  0  0
    1.0738   -2.5860    0.0000 C   0  0  0  0  0  0  0  0  0  0  0  0
    4.4203   -4.5366    0.0000 C   0  0  0  0  0  0  0  0  0  0  0  0
    7.7937   -2.6486    0.0000 C   0  0  0  0  0  0  0  0  0  0  0  0
    0.0000   -0.6800    0.0000 C   0  0  0  0  0  0  0  0  0  0  0  0
    7.7937   -0.0000    0.0000 C   0  0  0  0  0  0  0  0  0  0  0  0
    0.0000   -1.9507    0.0000 C   0  0  0  0  0  0  0  0  0  0  0  0
    8.9480   -1.9865    0.0000 C   0  0  0  0  0  0  0  0  0  0  0  0
    8.9480   -0.6622    0.0000 C   0  0  0  0  0  0  0  0  0  0  0  0
  1  2  1  0  0  0  0 
  1  3  1  0  0  0  0 
  1  4  2  0  0  0  0 
  2  5  1  0  0  0  0 
  2  6  2  0  0  0  0 
  3  7  1  0  0  0  0 
  3  8  2  0  0  0  0 
  4  9  1  0  0  0  0 
  4 10  1  0  0  0  0 
  5 11  1  0  0  0  0 
  5  7  2  0  0  0  0 
  6 12  1  0  0  0  0 
  7 13  1  0  0  0  0 
  8 14  1  0  0  0  0 
  9 12  2  0  0  0  0 
  9 15  1  0  0  0  0 
 10 14  2  0  0  0  0 
 11 16  2  0  0  0  0 
 12 17  1  0  0  0  0 
 13 18  2  0  0  0  0 
 15 19  2  0  0  0  0 
 18 16  1  0  0  0  0 
 17 20  2  0  0  0  0 
 19 20  1  0  0  0  0 
M  END
> <Name>
BENZO(B)FLUORANTHENE

> <Source>
DSSTox2DMolFile

> <Tox>
-6.301

> <CAS>
205-99-2

$$$$

  CDK

 16 19  0  0  0  0  0  0  0  0999 V2000
    4.4365   -2.5608    0.0000 C   0  0  0  0  0  0  0  0  0  0  0  0
    3.3124   -1.9222    0.0000 C   0  0  0  0  0  0  0  0  0  0  0  0
    5.5273   -1.9222    0.0000 C   0  0  0  0  0  0  0  0  0  0  0  0
    4.4365   -3.8445    0.0000 C   0  0  0  0  0  0  0  0  0  0  0  0
    3.3124   -0.6385    0.0000 C   0  0  0  0  0  0  0  0  0  0  0  0
    2.2149   -2.5608    0.0000 C   0  0  0  0  0  0  0  0  0  0  0  0
    5.5273   -0.6385    0.0000 C   0  0  0  0  0  0  0  0  0  0  0  0
    6.6514   -2.5608    0.0000 C   0  0  0  0  0  0  0  0  0  0  0  0
    5.5273   -4.4830    0.0000 C   0  0  0  0  0  0  0  0  0  0  0  0
    2.2149   -3.8445    0.0000 C   0  0  0  0  0  0  0  0  0  0  0  0
    4.4365   -0.0000    0.0000 C   0  0  0  0  0  0  0  0  0  0  0  0
    1.0975   -1.9222    0.0000 C   0  0  0  0  0  0  0  0  0  0  0  0
    6.6514   -3.8445    0.0000 C   0  0  0  0  0  0  0  0  0  0  0  0
    1.0975   -4.4830    0.0000 C   0  0  0  0  0  0  0  0  0  0  0  0
    0.0000   -2.5608    0.0000 C   0  0  0  0  0  0  0  0  0  0  0  0
    0.0000   -3.8445    0.0000 C   0  0  0  0  0  0  0  0  0  0  0  0
  1  2  2  0  0  0  0 
  1  3  1  0  0  0  0 
  1  4  1  0  0  0  0 
  2  5  1  0  0  0  0 
  2  6  1  0  0  0  0 
  3  7  2  0  0  0  0 
  3  8  1  0  0  0  0 
  4  9  2  0  0  0  0 
  4 10  1  0  0  0  0 
  5 11  2  0  0  0  0 
 10  6  2  0  0  0  0 
  6 12  1  0  0  0  0 
  7 11  1  0  0  0  0 
  8 13  2  0  0  0  0 
  9 13  1  0  0  0  0 
 10 14  1  0  0  0  0 
 12 15  2  0  0  0  0 
 14 16  2  0  0  0  0 
 16 15  1  0  0  0  0 
M  END
> <Name>
FLUORANTHENE

> <Source>
DSSTox2DMolFile

> <Tox>
-5.035

> <CAS>
206-44-0

$$$$

  CDK

 20 24  0  0  0  0  0  0  0  0999 V2000
    6.8600   -2.1161    0.0000 C   0  0  0  0  0  0  0  0  0  0  0  0
    6.2530   -1.0581    0.0000 C   0  0  0  0  0  0  0  0  0  0  0  0
    6.2530   -3.1395    0.0000 C   0  0  0  0  0  0  0  0  0  0  0  0
    8.0742   -2.1161    0.0000 C   0  0  0  0  0  0  0  0  0  0  0  0
    5.0908   -1.3616    0.0000 C   0  0  0  0  0  0  0  0  0  0  0  0
    6.8600   -0.0000    0.0000 C   0  0  0  0  0  0  0  0  0  0  0  0
    5.0908   -2.8446    0.0000 C   0  0  0  0  0  0  0  0  0  0  0  0
    6.8600   -4.2062    0.0000 C   0  0  0  0  0  0  0  0  0  0  0  0
    8.6726   -1.0581    0.0000 C   0  0  0  0  0  0  0  0  0  0  0  0
    8.6726   -3.1395    0.0000 C   0  0  0  0  0  0  0  0  0  0  0  0
    3.8160   -0.6331    0.0000 C   0  0  0  0  0  0  0  0  0  0  0  0
    8.0742   -0.0000    0.0000 C   0  0  0  0  0  0  0  0  0  0  0  0
    3.8160   -3.5731    0.0000 C   0  0  0  0  0  0  0  0  0  0  0  0
    8.0742   -4.2062    0.0000 C   0  0  0  0  0  0  0  0  0  0  0  0
    2.5411   -1.3616    0.0000 C   0  0  0  0  0  0  0  0  0  0  0  0
    2.5411   -2.8446    0.0000 C   0  0  0  0  0  0  0  0  0  0  0  0
    1.2749   -0.6331    0.0000 C   0  0  0  0  0  0  0  0  0  0  0  0
    1.2749   -3.5731    0.0000 C   0  0  0  0  0  0  0  0  0  0  0  0
    0.0000   -1.3616    0.0000 C   0  0  0  0  0  0  0  0  0  0  0  0
    0.0000   -2.8446    0.0000 C   0  0  0  0  0  0  0  0  0  0  0  0
  1  2  1  0  0  0  0 
  1  3  2  0  0  0  0 
  1  4  1  0  0  0  0 
  2  5  1  0  0  0  0 
  2  6  2  0  0  0  0 
  3  7  1  0  0  0  0 
  3  8  1  0  0  0  0 
  4  9  1  0  0  0  0 
  4 10  2  0  0  0  0 
  5 11  1  0  0  0  0 
  5  7  2  0  0  0  0 
  6 12  1  0  0  0  0 
  7 13  1  0  0  0  0 
  8 14  2  0  0  0  0 
  9 12  2  0  0  0  0 
 10 14  1  0  0  0  0 
 11 15  2  0  0  0  0 
 13 16  2  0  0  0  0 
 15 17  1  0  0  0  0 
 15 16  1  0  0  0  0 
 16 18  1  0  0  0  0 
 17 19  2  0  0  0  0 
 18 20  2  0  0  0  0 
 19 20  1  0  0  0  0 
M  END
> <Name>
BENZO(K)FLUORANTHENE

> <Source>
DSSTox2DMolFile

> <Tox>
-9.015

> <CAS>
207-08-9

$$$$

  CDK

 12 14  0  0  0  0  0  0  0  0999 V2000
    1.4108   -0.0000    0.0000 C   0  0  0  0  0  0  0  0  0  0  0  0
    3.0822   -0.0000    0.0000 C   0  0  0  0  0  0  0  0  0  0  0  0
    1.1233   -1.2850    0.0000 C   0  0  0  0  0  0  0  0  0  0  0  0
    3.3698   -1.2850    0.0000 C   0  0  0  0  0  0  0  0  0  0  0  0
    2.2465   -1.9365    0.0000 C   0  0  0  0  0  0  0  0  0  0  0  0
    0.0000   -1.9365    0.0000 C   0  0  0  0  0  0  0  0  0  0  0  0
    4.4930   -1.9365    0.0000 C   0  0  0  0  0  0  0  0  0  0  0  0
    2.2465   -3.2485    0.0000 C   0  0  0  0  0  0  0  0  0  0  0  0
    0.0000   -3.2485    0.0000 C   0  0  0  0  0  0  0  0  0  0  0  0
    4.4930   -3.2485    0.0000 C   0  0  0  0  0  0  0  0  0  0  0  0
    3.3698   -3.8955    0.0000 C   0  0  0  0  0  0  0  0  0  0  0  0
    1.1233   -3.8955    0.0000 C   0  0  0  0  0  0  0  0  0  0  0  0
  1  2  2  0  0  0  0 
  1  3  1  0  0  0  0 
  2  4  1  0  0  0  0 
  5  3  2  0  0  0  0 
  3  6  1  0  0  0  0 
  5  4  1  0  0  0  0 
  4  7  2  0  0  0  0 
  5  8  1  0  0  0  0 
  9  6  2  0  0  0  0 
 10  7  1  0  0  0  0 
  8 11  1  0  0  0  0 
  8 12  2  0  0  0  0 
  9 12  1  0  0  0  0 
 10 11  2  0  0  0  0 
M  END
> <Name>
ACENAPHTHYLENE

> <Source>
DSSTox2DMolFile

> <Tox>
-2.175

> <CAS>
208-96-8

$$$$

  CDK

 22 26  0  0  0  0  0  0  0  0999 V2000
    6.1127    5.8502    0.5347 C   0  0  0  0  0  0  0  0  0  0  0  0
    5.6074    4.5269    0.3720 C   0  0  0  0  0  0  0  0  0  0  0  0
    7.5508    6.0632    0.6552 C   0  0  0  0  0  0  0  0  0  0  0  0
    5.2314    6.9158    0.5758 C   0  0  0  0  0  0  0  0  0  0  0  0
    6.5347    3.4015    0.3280 C   0  0  0  0  0  0  0  0  0  0  0  0
    4.2430    4.3280    0.2578 C   0  0  0  0  0  0  0  0  0  0  0  0
    8.4343    4.9718    0.6109 C   0  0  0  0  0  0  0  0  0  0  0  0
    8.0708    7.3581    0.8170 C   0  0  0  0  0  0  0  0  0  0  0  0
    3.8398    6.7200    0.4598 C   0  0  0  0  0  0  0  0  0  0  0  0
    7.9177    3.6189    0.4451 C   0  0  0  0  0  0  0  0  0  0  0  0
    6.0593    2.0893    0.1683 C   0  0  0  0  0  0  0  0  0  0  0  0
    3.3393    5.4098    0.2991 C   0  0  0  0  0  0  0  0  0  0  0  0
    9.8147    5.2030    0.7292 C   0  0  0  0  0  0  0  0  0  0  0  0
    9.4324    7.5688    0.9322 C   0  0  0  0  0  0  0  0  0  0  0  0
    2.9274    7.8139    0.5014 C   0  0  0  0  0  0  0  0  0  0  0  0
    8.7899    2.5187    0.3992 C   0  0  0  0  0  0  0  0  0  0  0  0
    6.9313    1.0173    0.1251 C   0  0  0  0  0  0  0  0  0  0  0  0
    1.9329    5.2112    0.1820 C   0  0  0  0  0  0  0  0  0  0  0  0
   10.3100    6.4840    0.8878 C   0  0  0  0  0  0  0  0  0  0  0  0
    1.5844    7.5944    0.3866 C   0  0  0  0  0  0  0  0  0  0  0  0
    8.3055    1.2335    0.2411 C   0  0  0  0  0  0  0  0  0  0  0  0
    1.0815    6.2781    0.2254 C   0  0  0  0  0  0  0  0  0  0  0  0
  1  2  2  0  0  0  0 
  1  3  1  0  0  0  0 
  4  1  1  0  0  0  0 
  5  2  1  0  0  0  0 
  2  6  1  0  0  0  0 
  7  3  2  0  0  0  0 
  3  8  1  0  0  0  0 
  9  4  2  0  0  0  0 
  5 10  2  0  0  0  0 
 11  5  1  0  0  0  0 
  6 12  2  0  0  0  0 
  7 10  1  0  0  0  0 
 13  7  1  0  0  0  0 
  8 14  2  0  0  0  0 
  9 12  1  0  0  0  0 
 15  9  1  0  0  0  0 
 10 16  1  0  0  0  0 
 17 11  2  0  0  0  0 
 12 18  1  0  0  0  0 
 19 13  2  0  0  0  0 
 14 19  1  0  0  0  0 
 20 15  2  0  0  0  0 
 16 21  2  0  0  0  0 
 21 17  1  0  0  0  0 
 18 22  2  0  0  0  0 
 22 20  1  0  0  0  0 
M  END
> <Name>
1,2,3,4-DIBENZANTHRACENE

> <Source>
NIST3DMolFile

> <Tox>
-10.000

> <CAS>
215-58-7

$$$$

  CDK

 18 21  0  0  0  0  0  0  0  0999 V2000
    4.2466    1.7721    4.2145 C   0  0  0  0  0  0  0  0  0  0  0  0
    3.2847    2.1376    3.1865 C   0  0  0  0  0  0  0  0  0  0  0  0
    5.5754    2.2192    4.1245 C   0  0  0  0  0  0  0  0  0  0  0  0
    3.8652    0.9714    5.3066 C   0  0  0  0  0  0  0  0  0  0  0  0
    3.6845    2.9380    2.1032 C   0  0  0  0  0  0  0  0  0  0  0  0
    1.9498    1.6993    3.2595 C   0  0  0  0  0  0  0  0  0  0  0  0
    5.9892    3.0478    3.0030 C   0  0  0  0  0  0  0  0  0  0  0  0
    6.4909    1.8550    5.1289 C   0  0  0  0  0  0  0  0  0  0  0  0
    4.7765    0.6236    6.2832 C   0  0  0  0  0  0  0  0  0  0  0  0
    5.0602    3.4009    2.0100 C   0  0  0  0  0  0  0  0  0  0  0  0
    2.7396    3.2812    1.1189 C   0  0  0  0  0  0  0  0  0  0  0  0
    1.0359    2.0455    2.2846 C   0  0  0  0  0  0  0  0  0  0  0  0
    7.3153    3.5053    2.8954 C   0  0  0  0  0  0  0  0  0  0  0  0
    6.0993    1.0687    6.1937 C   0  0  0  0  0  0  0  0  0  0  0  0
    5.4796    4.2032    0.9329 C   0  0  0  0  0  0  0  0  0  0  0  0
    1.4337    2.8425    1.2065 C   0  0  0  0  0  0  0  0  0  0  0  0
    7.7095    4.2919    1.8316 C   0  0  0  0  0  0  0  0  0  0  0  0
    6.7848    4.6432    0.8431 C   0  0  0  0  0  0  0  0  0  0  0  0
  1  2  2  0  0  0  0 
  1  3  1  0  0  0  0 
  4  1  1  0  0  0  0 
  5  2  1  0  0  0  0 
  2  6  1  0  0  0  0 
  7  3  2  0  0  0  0 
  3  8  1  0  0  0  0 
  9  4  2  0  0  0  0 
  5 10  2  0  0  0  0 
 11  5  1  0  0  0  0 
  6 12  2  0  0  0  0 
  7 10  1  0  0  0  0 
 13  7  1  0  0  0  0 
  8 14  2  0  0  0  0 
 14  9  1  0  0  0  0 
 10 15  1  0  0  0  0 
 16 11  2  0  0  0  0 
 12 16  1  0  0  0  0 
 17 13  2  0  0  0  0 
 15 18  2  0  0  0  0 
 18 17  1  0  0  0  0 
M  END
> <Name>
TRIPHENYLENE

> <Source>
NIST3DMolFile

> <Tox>
-7.678

> <CAS>
217-59-4

$$$$

  CDK

 14 16  0  0  0  0  0  0  0  0999 V2000
    0.0000    0.0000    0.0000 N   0  0  0  0  0  0  0  0  0  0  0  0
   -0.6200    1.2000    0.3000 C   0  0  0  0  0  0  0  0  0  0  0  0
    1.3400   -0.1200   -0.0400 C   0  0  0  0  0  0  0  0  0  0  0  0
    0.1600    2.3800    0.5600 C   0  0  0  0  0  0  0  0  0  0  0  0
   -2.0200    1.2400    0.3400 C   0  0  0  0  0  0  0  0  0  0  0  0
    2.1600    1.0000    0.2000 C   0  0  0  0  0  0  0  0  0  0  0  0
    1.5800    2.2800    0.5200 C   0  0  0  0  0  0  0  0  0  0  0  0
   -0.5400    3.5800    0.8400 C   0  0  0  0  0  0  0  0  0  0  0  0
   -2.6800    2.4400    0.6200 C   0  0  0  0  0  0  0  0  0  0  0  0
    3.5600    0.8400    0.1600 C   0  0  0  0  0  0  0  0  0  0  0  0
    2.4600    3.3600    0.7600 C   0  0  0  0  0  0  0  0  0  0  0  0
   -1.9400    3.6200    0.8800 C   0  0  0  0  0  0  0  0  0  0  0  0
    4.4000    1.9400    0.4000 C   0  0  0  0  0  0  0  0  0  0  0  0
    3.8400    3.2000    0.7000 C   0  0  0  0  0  0  0  0  0  0  0  0
  1  2  2  0  0  0  0 
  1  3  1  0  0  0  0 
  4  2  1  0  0  0  0 
  2  5  1  0  0  0  0 
  3  6  2  0  0  0  0 
  7  4  2  0  0  0  0 
  4  8  1  0  0  0  0 
  5  9  2  0  0  0  0 
  6  7  1  0  0  0  0 
  6 10  1  0  0  0  0 
  7 11  1  0  0  0  0 
  8 12  2  0  0  0  0 
  9 12  1  0  0  0  0 
 10 13  2  0  0  0  0 
 14 11  2  0  0  0  0 
 13 14  1  0  0  0  0 
M  END
> <Name>
PHENANTHRIDINE

> <Source>
NIH3DMolFile

> <Tox>
-4.682

> <CAS>
229-87-8

$$$$

  CDK

 14 16  0  0  0  0  0  0  0  0999 V2000
   -4.4755   -0.6958    1.8763 N   0  0  0  0  0  0  0  0  0  0  0  0
   -3.9308    0.4299    2.3915 C   0  0  0  0  0  0  0  0  0  0  0  0
   -5.7151   -1.0699    2.2667 C   0  0  0  0  0  0  0  0  0  0  0  0
   -2.6394    0.8610    2.0146 C   0  0  0  0  0  0  0  0  0  0  0  0
   -4.6514    1.2044    3.3271 C   0  0  0  0  0  0  0  0  0  0  0  0
   -6.4807   -0.3704    3.1724 C   0  0  0  0  0  0  0  0  0  0  0  0
   -2.0860    2.0452    2.5671 C   0  0  0  0  0  0  0  0  0  0  0  0
   -1.8556    0.1429    1.0861 C   0  0  0  0  0  0  0  0  0  0  0  0
   -4.0973    2.3710    3.8666 C   0  0  0  0  0  0  0  0  0  0  0  0
   -5.9338    0.7846    3.7074 C   0  0  0  0  0  0  0  0  0  0  0  0
   -2.8260    2.7875    3.4898 C   0  0  0  0  0  0  0  0  0  0  0  0
   -0.8009    2.4665    2.1866 C   0  0  0  0  0  0  0  0  0  0  0  0
   -0.5795    0.5739    0.7172 C   0  0  0  0  0  0  0  0  0  0  0  0
   -0.0527    1.7350    1.2672 C   0  0  0  0  0  0  0  0  0  0  0  0
  1  2  1  0  0  0  0 
  1  3  2  0  0  0  0 
  4  2  1  0  0  0  0 
  2  5  2  0  0  0  0 
  6  3  1  0  0  0  0 
  4  7  1  0  0  0  0 
  4  8  2  0  0  0  0 
  5  9  1  0  0  0  0 
  5 10  1  0  0  0  0 
 10  6  2  0  0  0  0 
  7 11  1  0  0  0  0 
  7 12  2  0  0  0  0 
  8 13  1  0  0  0  0 
 11  9  2  0  0  0  0 
 12 14  1  0  0  0  0 
 13 14  2  0  0  0  0 
M  END
> <Name>
BENZO(H)QUINOLINE

> <Source>
Chemidplus3DMolFile

> <Tox>
-3.662

> <CAS>
230-27-3

$$$$

  CDK

 17 20  0  0  0  0  0  0  0  0999 V2000
    2.9240    1.5499    5.0249 C   0  0  0  0  0  0  0  0  0  0  0  0
    3.8010    1.8498    6.0599 C   0  0  0  0  0  0  0  0  0  0  0  0
    3.3047    1.7490    3.6803 C   0  0  0  0  0  0  0  0  0  0  0  0
    1.6240    1.0243    5.5828 C   0  0  0  0  0  0  0  0  0  0  0  0
    3.1439    1.5542    7.3333 C   0  0  0  0  0  0  0  0  0  0  0  0
    5.0898    2.3493    5.7937 C   0  0  0  0  0  0  0  0  0  0  0  0
    4.5999    2.2527    3.4166 C   0  0  0  0  0  0  0  0  0  0  0  0
    2.4356    1.4667    2.5919 C   0  0  0  0  0  0  0  0  0  0  0  0
    1.8496    1.0602    7.0614 C   0  0  0  0  0  0  0  0  0  0  0  0
    3.5928    1.6884    8.6409 C   0  0  0  0  0  0  0  0  0  0  0  0
    5.4782    2.5423    4.4923 C   0  0  0  0  0  0  0  0  0  0  0  0
    4.9956    2.4561    2.0667 C   0  0  0  0  0  0  0  0  0  0  0  0
    2.8418    1.6752    1.3025 C   0  0  0  0  0  0  0  0  0  0  0  0
    1.0029    0.7010    8.0948 C   0  0  0  0  0  0  0  0  0  0  0  0
    2.7352    1.3228    9.6810 C   0  0  0  0  0  0  0  0  0  0  0  0
    4.1374    2.1739    1.0383 C   0  0  0  0  0  0  0  0  0  0  0  0
    1.4629    0.8368    9.4078 C   0  0  0  0  0  0  0  0  0  0  0  0
  2  1  1  0  0  0  0 
  1  3  2  0  0  0  0 
  4  1  1  0  0  0  0 
  2  5  1  0  0  0  0 
  6  2  2  0  0  0  0 
  7  3  1  0  0  0  0 
  3  8  1  0  0  0  0 
  9  4  1  0  0  0  0 
  9  5  1  0  0  0  0 
  5 10  2  0  0  0  0 
 11  6  1  0  0  0  0 
  7 11  2  0  0  0  0 
 12  7  1  0  0  0  0 
  8 13  2  0  0  0  0 
 14  9  2  0  0  0  0 
 10 15  1  0  0  0  0 
 16 12  2  0  0  0  0 
 13 16  1  0  0  0  0 
 17 14  1  0  0  0  0 
 15 17  2  0  0  0  0 
M  END
> <Name>
11H-BENZO(A)FLUORENE

> <Source>
NIST3DMolFile

> <Tox>
-6.614

> <CAS>
238-84-6

$$$$

  CDK

 17 20  0  0  0  0  0  0  0  0999 V2000
    5.2488   -0.3819    0.2406 S   0  0  0  0  0  0  0  0  0  0  0  0
    4.2750   -1.8041    0.1511 C   0  0  0  0  0  0  0  0  0  0  0  0
    6.7203   -1.2531    0.2832 C   0  0  0  0  0  0  0  0  0  0  0  0
    5.0830   -2.9464    0.1550 C   0  0  0  0  0  0  0  0  0  0  0  0
    2.8454   -1.8986    0.0800 C   0  0  0  0  0  0  0  0  0  0  0  0
    6.4982   -2.6274    0.2310 C   0  0  0  0  0  0  0  0  0  0  0  0
    8.0202   -0.7133    0.3605 C   0  0  0  0  0  0  0  0  0  0  0  0
    4.4462   -4.2110    0.0868 C   0  0  0  0  0  0  0  0  0  0  0  0
    2.2522   -3.1824    0.0132 C   0  0  0  0  0  0  0  0  0  0  0  0
    2.0157   -0.7547    0.0742 C   0  0  0  0  0  0  0  0  0  0  0  0
    7.6331   -3.4804    0.2579 C   0  0  0  0  0  0  0  0  0  0  0  0
    9.1136   -1.5795    0.3849 C   0  0  0  0  0  0  0  0  0  0  0  0
    3.0561   -4.3193    0.0175 C   0  0  0  0  0  0  0  0  0  0  0  0
    0.8539   -3.2892   -0.0575 C   0  0  0  0  0  0  0  0  0  0  0  0
    0.6285   -0.8858    0.0040 C   0  0  0  0  0  0  0  0  0  0  0  0
    8.9242   -2.9515    0.3342 C   0  0  0  0  0  0  0  0  0  0  0  0
    0.0493   -2.1493   -0.0619 C   0  0  0  0  0  0  0  0  0  0  0  0
  1  2  1  0  0  0  0 
  1  3  1  0  0  0  0 
  4  2  2  0  0  0  0 
  2  5  1  0  0  0  0 
  6  3  1  0  0  0  0 
  3  7  2  0  0  0  0 
  4  6  1  0  0  0  0 
  4  8  1  0  0  0  0 
  5  9  1  0  0  0  0 
  5 10  2  0  0  0  0 
  6 11  2  0  0  0  0 
  7 12  1  0  0  0  0 
  8 13  2  0  0  0  0 
  9 13  1  0  0  0  0 
  9 14  2  0  0  0  0 
 10 15  1  0  0  0  0 
 11 16  1  0  0  0  0 
 16 12  2  0  0  0  0 
 14 17  1  0  0  0  0 
 15 17  2  0  0  0  0 
M  END
> <Name>
BENZO(B)NAPHTHO(2,1-D)THIOPHENE

> <Source>
Chemidplus3DMolFile

> <Tox>
-6.943

> <CAS>
239-35-0

$$$$

  CDK

 17 20  0  0  0  0  0  0  0  0999 V2000
    4.6089   -1.9935    0.0000 C   0  0  0  0  0  0  0  0  0  0  0  0
    4.6089   -0.6645    0.0000 C   0  0  0  0  0  0  0  0  0  0  0  0
    5.8697   -2.4024    0.0000 C   0  0  0  0  0  0  0  0  0  0  0  0
    3.4588   -2.6580    0.0000 C   0  0  0  0  0  0  0  0  0  0  0  0
    5.8697   -0.2471    0.0000 C   0  0  0  0  0  0  0  0  0  0  0  0
    3.4588   -0.0000    0.0000 C   0  0  0  0  0  0  0  0  0  0  0  0
    6.6535   -1.3290    0.0000 C   0  0  0  0  0  0  0  0  0  0  0  0
    6.4150   -3.6207    0.0000 C   0  0  0  0  0  0  0  0  0  0  0  0
    2.3002   -1.9935    0.0000 C   0  0  0  0  0  0  0  0  0  0  0  0
    2.3002   -0.6645    0.0000 C   0  0  0  0  0  0  0  0  0  0  0  0
    7.9740   -1.4653    0.0000 C   0  0  0  0  0  0  0  0  0  0  0  0
    7.7354   -3.7570    0.0000 C   0  0  0  0  0  0  0  0  0  0  0  0
    1.1501   -2.6580    0.0000 C   0  0  0  0  0  0  0  0  0  0  0  0
    1.1501   -0.0000    0.0000 C   0  0  0  0  0  0  0  0  0  0  0  0
    8.5192   -2.6835    0.0000 C   0  0  0  0  0  0  0  0  0  0  0  0
    0.0000   -1.9935    0.0000 C   0  0  0  0  0  0  0  0  0  0  0  0
    0.0000   -0.6645    0.0000 C   0  0  0  0  0  0  0  0  0  0  0  0
  1  2  2  0  0  0  0 
  1  3  1  0  0  0  0 
  1  4  1  0  0  0  0 
  2  5  1  0  0  0  0 
  2  6  1  0  0  0  0 
  7  3  1  0  0  0  0 
  3  8  2  0  0  0  0 
  9  4  2  0  0  0  0 
  5  7  1  0  0  0  0 
  6 10  2  0  0  0  0 
  7 11  2  0  0  0  0 
  8 12  1  0  0  0  0 
 10  9  1  0  0  0  0 
  9 13  1  0  0  0  0 
 10 14  1  0  0  0  0 
 15 11  1  0  0  0  0 
 12 15  2  0  0  0  0 
 13 16  2  0  0  0  0 
 17 14  2  0  0  0  0 
 16 17  1  0  0  0  0 
M  END
> <Name>
11H-BENZO(B)FLUORENE

> <Source>
DSSTox2DMolFile

> <Tox>
-7.260

> <CAS>
243-17-4

$$$$

  CDK

  9 10  0  0  0  0  0  0  0  0999 V2000
    0.7831   -0.2523    0.0000 C   0  0  0  0  0  0  0  0  0  0  0  0
    0.0000   -1.3269    0.0000 C   0  0  0  0  0  0  0  0  0  0  0  0
    2.0448   -0.6613    0.0000 C   0  0  0  0  0  0  0  0  0  0  0  0
    0.7831   -2.4059    0.0000 O   0  0  0  0  0  0  0  0  0  0  0  0
    2.0448   -1.9926    0.0000 C   0  0  0  0  0  0  0  0  0  0  0  0
    3.1977   -0.0000    0.0000 C   0  0  0  0  0  0  0  0  0  0  0  0
    3.1977   -2.6582    0.0000 C   0  0  0  0  0  0  0  0  0  0  0  0
    4.3506   -0.6613    0.0000 C   0  0  0  0  0  0  0  0  0  0  0  0
    4.3506   -1.9926    0.0000 C   0  0  0  0  0  0  0  0  0  0  0  0
  1  2  2  0  0  0  0 
  1  3  1  0  0  0  0 
  2  4  1  0  0  0  0 
  5  3  2  0  0  0  0 
  3  6  1  0  0  0  0 
  4  5  1  0  0  0  0 
  5  7  1  0  0  0  0 
  6  8  2  0  0  0  0 
  9  7  2  0  0  0  0 
  8  9  1  0  0  0  0 
M  END
> <Name>
BENZOFURAN

> <Source>
DSSTox2DMolFile

> <Tox>
-0.357

> <CAS>
271-89-6

$$$$

  CDK

  8  9  0  0  0  0  0  0  0  0999 V2000
    1.3007    0.0001   -0.0003 C   0  0  0  0  0  0  0  0  0  0  0  0
    0.7680   -0.5998    1.3120 C   0  0  0  0  0  0  0  0  0  0  0  0
    0.7676    1.4364   -0.1369 C   0  0  0  0  0  0  0  0  0  0  0  0
    0.7674   -0.8366   -1.1757 C   0  0  0  0  0  0  0  0  0  0  0  0
   -0.7672   -0.5999    1.3124 C   0  0  0  0  0  0  0  0  0  0  0  0
   -0.7677    1.4363   -0.1364 C   0  0  0  0  0  0  0  0  0  0  0  0
   -0.7679   -0.8365   -1.1754 C   0  0  0  0  0  0  0  0  0  0  0  0
   -1.3007    0.0000    0.0003 C   0  0  0  0  0  0  0  0  0  0  0  0
  1  2  1  0  0  0  0 
  1  3  1  0  0  0  0 
  1  4  1  0  0  0  0 
  2  5  1  0  0  0  0 
  3  6  1  0  0  0  0 
  4  7  1  0  0  0  0 
  8  5  1  0  0  0  0 
  8  6  1  0  0  0  0 
  8  7  1  0  0  0  0 
M  END
> <Name>
BICYCLO[2.2.2]OCTANE

> <Source>
Chemidplus3DMolFile

> <Tox>
0.524

> <CAS>
280-33-1

$$$$

  CDK

  8  9  0  0  0  0  0  0  0  0999 V2000
    1.2604   -0.0000    0.0000 N   0  0  0  0  0  0  0  0  0  0  0  0
    2.5179   -0.7173    0.0000 C   0  0  0  0  0  0  0  0  0  0  0  0
    0.0000   -0.7173    0.0000 C   0  0  0  0  0  0  0  0  0  0  0  0
    1.8383   -0.9264    0.0000 C   0  0  0  0  0  0  0  0  0  0  0  0
    2.5179   -2.1868    0.0000 C   0  0  0  0  0  0  0  0  0  0  0  0
    0.0000   -2.1868    0.0000 C   0  0  0  0  0  0  0  0  0  0  0  0
    1.8383   -1.9777    0.0000 C   0  0  0  0  0  0  0  0  0  0  0  0
    1.2604   -2.9042    0.0000 N   0  0  0  0  0  0  0  0  0  0  0  0
  1  2  1  0  0  0  0 
  1  3  1  0  0  0  0 
  1  4  1  0  0  0  0 
  2  5  1  0  0  0  0 
  6  3  1  0  0  0  0 
  4  7  1  0  0  0  0 
  8  5  1  0  0  0  0 
  8  6  1  0  0  0  0 
  8  7  1  0  0  0  0 
M  END
> <Name>
1,4-DIAZABICYCLO(2,2,2)OCTANE  (DABCO)

> <Source>
DSSTox2DMolFile

> <Tox>
-0.130

> <CAS>
280-57-9

$$$$

  CDK

  7  8  0  0  0  0  0  0  0  0999 V2000
    1.7160    0.9810    3.0095 C   0  0  0  0  0  0  0  0  0  0  0  0
    1.7467    1.1493    1.5091 C   0  0  0  0  0  0  0  0  0  0  0  0
    1.0896    2.1899    2.3694 C   0  0  0  0  0  0  0  0  0  0  0  0
    2.9767    1.1475    3.8193 C   0  0  0  0  0  0  0  0  0  0  0  0
    3.0437    1.4371    0.8033 C   0  0  0  0  0  0  0  0  0  0  0  0
    4.2363    1.0512    2.9719 C   0  0  0  0  0  0  0  0  0  0  0  0
    4.1390    1.9297    1.7364 C   0  0  0  0  0  0  0  0  0  0  0  0
  1  2  1  0  0  0  0 
  1  3  1  0  0  0  0 
  4  1  1  0  0  0  0 
  3  2  1  0  0  0  0 
  2  5  1  0  0  0  0 
  6  4  1  0  0  0  0 
  5  7  1  0  0  0  0 
  7  6  1  0  0  0  0 
M  END
> <Name>
BICYCLO(4.1.0)HEPTANE

> <Source>
NIST3DMolFile

> <Tox>
1.358

> <CAS>
286-08-8

$$$$

  CDK

  4  4  0  0  0  0  0  0  0  0999 V2000
    1.8214    2.8381    0.9301 C   0  0  0  0  0  0  0  0  0  0  0  0
    0.6828    1.7991    0.9773 C   0  0  0  0  0  0  0  0  0  0  0  0
    2.8602    1.6987    0.9052 C   0  0  0  0  0  0  0  0  0  0  0  0
    1.7216    0.6597    0.9512 C   0  0  0  0  0  0  0  0  0  0  0  0
  2  1  1  0  0  0  0 
  1  3  1  0  0  0  0 
  4  2  1  0  0  0  0 
  3  4  1  0  0  0  0 
M  END
> <Name>
CYCLOBUTANE

> <Source>
NIST3DMolFile

> <Tox>
3.072

> <CAS>
287-23-0

$$$$

  CDK

  4  4  0  0  0  0  0  0  0  0999 V2000
    0.6644    1.3339    0.8913 C   0  0  0  0  0  0  0  0  0  0  0  0
    1.7434    2.4233    0.9163 C   0  0  0  0  0  0  0  0  0  0  0  0
    1.9231    0.0000    0.8908 S   0  0  0  0  0  0  0  0  0  0  0  0
    2.9712    1.5047    0.9183 C   0  0  0  0  0  0  0  0  0  0  0  0
  1  2  1  0  0  0  0 
  3  1  1  0  0  0  0 
  2  4  1  0  0  0  0 
  4  3  1  0  0  0  0 
M  END
> <Name>
THIACYCLOBUTANE

> <Source>
NIST3DMolFile

> <Tox>
1.722

> <CAS>
287-27-4

$$$$

  CDK

  5  5  0  0  0  0  0  0  0  0999 V2000
    1.7409   -0.0000    0.0000 C   0  0  0  0  0  0  0  0  0  0  0  0
    2.1519   -1.2653    0.0000 C   0  0  0  0  0  0  0  0  0  0  0  0
    0.4110   -0.0000    0.0000 C   0  0  0  0  0  0  0  0  0  0  0  0
    1.0760   -2.0465    0.0000 C   0  0  0  0  0  0  0  0  0  0  0  0
    0.0000   -1.2653    0.0000 C   0  0  0  0  0  0  0  0  0  0  0  0
  1  2  1  0  0  0  0 
  1  3  1  0  0  0  0 
  2  4  1  0  0  0  0 
  5  3  1  0  0  0  0 
  4  5  1  0  0  0  0 
M  END
> <Name>
CYCLOPENTANE

> <Source>
DSSTox2DMolFile

> <Tox>
2.502

> <CAS>
287-92-3

$$$$

  CDK

  5  5  0  0  0  0  0  0  0  0999 V2000
    0.9871    2.0456    0.0482 C   0  0  0  0  0  0  0  0  0  0  0  0
    0.8388    0.6877    0.1301 C   0  0  0  0  0  0  0  0  0  0  0  0
    2.3802    2.2974    0.0324 N   0  0  0  0  0  0  0  0  0  0  0  0
    2.0923    0.1096    0.1644 O   0  0  0  0  0  0  0  0  0  0  0  0
    3.0063    1.1307    0.1024 C   0  0  0  0  0  0  0  0  0  0  0  0
  2  1  2  0  0  0  0 
  1  3  1  0  0  0  0 
  4  2  1  0  0  0  0 
  3  5  2  0  0  0  0 
  5  4  1  0  0  0  0 
M  END
> <Name>
OXAZOLE

> <Source>
NIST3DMolFile

> <Tox>
2.121

> <CAS>
288-42-6

$$$$

  CDK

  5  5  0  0  0  0  0  0  0  0999 V2000
    1.6391    0.5961    0.0000 C   0  0  0  0  0  0  0  0  0  0  0  0
    0.7947    0.0000    0.0000 S   0  0  0  0  0  0  0  0  0  0  0  0
    1.3411    1.5398    0.0000 N   0  0  0  0  0  0  0  0  0  0  0  0
    0.0000    0.6457    0.0000 C   0  0  0  0  0  0  0  0  0  0  0  0
    0.3477    1.5398    0.0000 C   0  0  0  0  0  0  0  0  0  0  0  0
  1  2  1  0  0  0  0 
  3  1  2  0  0  0  0 
  2  4  1  0  0  0  0 
  5  3  1  0  0  0  0 
  4  5  2  0  0  0  0 
M  END
> <Name>
THIAZOLE

> <Source>
NIST2DMolFile

> <Tox>
1.236

> <CAS>
288-47-1

$$$$

  CDK

  6  6  0  0  0  0  0  0  0  0999 V2000
    0.9520    1.0468    1.8281 C   0  0  0  0  0  0  0  0  0  0  0  0
    0.9284    0.3277    0.6270 C   0  0  0  0  0  0  0  0  0  0  0  0
    2.1285    1.4246    2.3795 N   0  0  0  0  0  0  0  0  0  0  0  0
    2.0818    0.0000    0.0000 N   0  0  0  0  0  0  0  0  0  0  0  0
    3.2819    1.0969    1.7525 C   0  0  0  0  0  0  0  0  0  0  0  0
    3.2585    0.3778    0.5514 C   0  0  0  0  0  0  0  0  0  0  0  0
  2  1  2  0  0  0  0 
  1  3  1  0  0  0  0 
  4  2  1  0  0  0  0 
  3  5  2  0  0  0  0 
  6  4  2  0  0  0  0 
  5  6  1  0  0  0  0 
M  END
> <Name>
PYRAZINE

> <Source>
NIST3DMolFile

> <Tox>
1.033

> <CAS>
290-37-9

$$$$

  CDK

  7  7  0  0  0  0  0  0  0  0999 V2000
    2.0726    1.0369    1.8509 C   0  0  0  0  0  0  0  0  0  0  0  0
    0.9963    2.0074    1.3885 C   0  0  0  0  0  0  0  0  0  0  0  0
    3.3788    1.2099    1.0899 C   0  0  0  0  0  0  0  0  0  0  0  0
    0.9923    3.3443    2.1153 C   0  0  0  0  0  0  0  0  0  0  0  0
    4.1713    2.4378    1.5054 C   0  0  0  0  0  0  0  0  0  0  0  0
    2.3571    3.9348    2.4377 C   0  0  0  0  0  0  0  0  0  0  0  0
    3.4046    3.7430    1.3515 C   0  0  0  0  0  0  0  0  0  0  0  0
  1  2  1  0  0  0  0 
  3  1  1  0  0  0  0 
  2  4  1  0  0  0  0 
  5  3  1  0  0  0  0 
  4  6  1  0  0  0  0 
  7  5  1  0  0  0  0 
  6  7  1  0  0  0  0 
M  END
> <Name>
CYCLOHEPTANE

> <Source>
NIST3DMolFile

> <Tox>
1.334

> <CAS>
291-64-5

$$$$

  CDK

  8  8  0  0  0  0  0  0  0  0999 V2000
    1.0989    2.7326    1.3367 C   0  0  0  0  0  0  0  0  0  0  0  0
    1.4483    1.2838    1.6535 C   0  0  0  0  0  0  0  0  0  0  0  0
    1.6187    3.7213    2.3747 C   0  0  0  0  0  0  0  0  0  0  0  0
    2.8505    1.0729    2.2058 C   0  0  0  0  0  0  0  0  0  0  0  0
    2.6863    4.6623    1.8303 C   0  0  0  0  0  0  0  0  0  0  0  0
    3.9728    1.4927    1.2657 C   0  0  0  0  0  0  0  0  0  0  0  0
    3.6939    4.0095    0.8952 C   0  0  0  0  0  0  0  0  0  0  0  0
    4.5159    2.8936    1.5269 C   0  0  0  0  0  0  0  0  0  0  0  0
  2  1  1  0  0  0  0 
  1  3  1  0  0  0  0 
  4  2  1  0  0  0  0 
  3  5  1  0  0  0  0 
  6  4  1  0  0  0  0 
  5  7  1  0  0  0  0 
  8  6  1  0  0  0  0 
  7  8  1  0  0  0  0 
M  END
> <Name>
CYCLOOCTANE

> <Source>
NIST3DMolFile

> <Tox>
0.741

> <CAS>
292-64-8

$$$$

  CDK

 10 10  0  0  0  0  0  0  0  0999 V2000
    3.3548    1.6903    3.4008 C   0  0  0  0  0  0  0  0  0  0  0  0
    2.3309    0.9251    2.5734 C   0  0  0  0  0  0  0  0  0  0  0  0
    4.5895    2.0751    2.5977 C   0  0  0  0  0  0  0  0  0  0  0  0
    1.7824    1.7649    1.4266 C   0  0  0  0  0  0  0  0  0  0  0  0
    5.3225    3.2894    3.1947 C   0  0  0  0  0  0  0  0  0  0  0  0
    1.0965    3.0411    1.9019 C   0  0  0  0  0  0  0  0  0  0  0  0
    4.9798    4.6196    2.5307 C   0  0  0  0  0  0  0  0  0  0  0  0
    1.4448    4.2491    1.0388 C   0  0  0  0  0  0  0  0  0  0  0  0
    3.4817    4.8963    2.4105 C   0  0  0  0  0  0  0  0  0  0  0  0
    2.9445    4.5311    1.0312 C   0  0  0  0  0  0  0  0  0  0  0  0
  1  2  1  0  0  0  0 
  3  1  1  0  0  0  0 
  2  4  1  0  0  0  0 
  5  3  1  0  0  0  0 
  4  6  1  0  0  0  0 
  7  5  1  0  0  0  0 
  6  8  1  0  0  0  0 
  9  7  1  0  0  0  0 
  8 10  1  0  0  0  0 
 10  9  1  0  0  0  0 
M  END
> <Name>
CYCLODECANE

> <Source>
NIST3DMolFile

> <Tox>
-0.252

> <CAS>
293-96-9

$$$$

  CDK

 18 20  0  0  0  0  0  0  0  0999 V2000
    0.6487   -2.5433    0.0000 C   0  0  0  0  0  0  0  0  0  0  0  0
    2.5433   -1.9332    0.0000 C   0  0  0  0  0  0  0  0  0  0  0  0
    1.0661   -3.9691    0.0000 C   0  0  0  0  0  0  0  0  0  0  0  0
    0.0000   -2.2029    0.0000 Cl  0  0  0  0  0  0  0  0  0  0  0  0
    4.3416   -2.4341    0.0000 C   0  0  0  0  0  0  0  0  0  0  0  0
    3.2626   -0.5780    0.0000 C   0  0  0  0  0  0  0  0  0  0  0  0
    1.8561   -1.3038    0.0000 Cl  0  0  0  0  0  0  0  0  0  0  0  0
    2.6332   -3.1791    0.0000 C   0  0  0  0  0  0  0  0  0  0  0  0
    0.8991   -4.7976    0.0000 Cl  0  0  0  0  0  0  0  0  0  0  0  0
    4.1168   -3.6801    0.0000 C   0  0  0  0  0  0  0  0  0  0  0  0
    5.3563   -1.9845    0.0000 C   0  0  0  0  0  0  0  0  0  0  0  0
    4.0012   -0.1863    0.0000 Cl  0  0  0  0  0  0  0  0  0  0  0  0
    2.5433   -0.0000    0.0000 Cl  0  0  0  0  0  0  0  0  0  0  0  0
    2.8130   -4.0076    0.0000 Cl  0  0  0  0  0  0  0  0  0  0  0  0
    5.1894   -4.2388    0.0000 C   0  0  0  0  0  0  0  0  0  0  0  0
    6.4225   -3.0507    0.0000 O   0  0  0  0  0  0  0  0  0  0  0  0
    6.1463   -1.2460    0.0000 Cl  0  0  0  0  0  0  0  0  0  0  0  0
    5.4655   -4.9068    0.0000 Cl  0  0  0  0  0  0  0  0  0  0  0  0
  1  2  1  0  0  0  0 
  1  3  2  0  0  0  0 
  1  4  1  0  0  0  0 
  2  5  1  0  0  0  0 
  2  6  1  0  0  0  0 
  2  7  1  0  0  0  0 
  3  8  1  0  0  0  0 
  3  9  1  0  0  0  0 
 10  5  1  0  0  0  0 
  5 11  1  0  0  0  0 
  8  6  1  0  0  0  0 
  6 12  1  0  0  0  0 
  6 13  1  0  0  0  0 
  8 10  1  0  0  0  0 
  8 14  1  0  0  0  0 
 10 15  1  0  0  0  0 
 11 16  1  0  0  0  0 
 11 17  1  0  0  0  0 
 16 15  1  0  0  0  0 
 15 18  1  0  0  0  0 
M  END
> <Name>
ISOBENZAN

> <Source>
DSSTox2DMolFile

> <Tox>
-5.535

> <CAS>
297-78-9

$$$$

  CDK

 18 17  0  0  0  0  0  0  0  0999 V2000
    3.0067    0.8519    0.0000 C   0  0  0  0  0  0  0  0  0  0  0  0
    2.5056    1.7038    0.0000 C   0  0  0  0  0  0  0  0  0  0  0  0
    2.5056    0.0000    0.0000 Cl  0  0  0  0  0  0  0  0  0  0  0  0
    4.0089    0.8519    0.0000 C   0  0  0  0  0  0  0  0  0  0  0  0
    1.5033    1.7038    0.0000 N   0  0  0  0  0  0  0  0  0  0  0  0
    3.0067    2.6058    0.0000 O   0  0  0  0  0  0  0  0  0  0  0  0
    4.5100    0.0000    0.0000 C   0  0  0  0  0  0  0  0  0  0  0  0
    4.5100    1.7038    0.0000 O   0  0  0  0  0  0  0  0  0  0  0  0
    1.0022    2.6058    0.0000 C   0  0  0  0  0  0  0  0  0  0  0  0
    1.0022    0.8519    0.0000 C   0  0  0  0  0  0  0  0  0  0  0  0
    5.5122    1.7038    0.0000 P   0  0  0  0  0  0  0  0  0  0  0  0
    1.5033    3.4076    0.0000 C   0  0  0  0  0  0  0  0  0  0  0  0
    0.0000    0.8519    0.0000 C   0  0  0  0  0  0  0  0  0  0  0  0
    5.2617    2.7060    0.0000 O   0  0  0  0  0  0  0  0  0  0  0  0
    6.0133    0.8519    0.0000 O   0  0  0  0  0  0  0  0  0  0  0  0
    6.4643    2.0044    0.0000 O   0  0  0  0  0  0  0  0  0  0  0  0
    5.9632    3.4076    0.0000 C   0  0  0  0  0  0  0  0  0  0  0  0
    7.2160    1.3029    0.0000 C   0  0  0  0  0  0  0  0  0  0  0  0
  1  2  1  0  0  0  0 
  1  3  1  0  0  0  0 
  1  4  2  0  0  0  0 
  2  5  1  0  0  0  0 
  2  6  2  0  0  0  0 
  4  7  1  0  0  0  0 
  4  8  1  0  0  0  0 
  5  9  1  0  0  0  0 
  5 10  1  0  0  0  0 
  8 11  1  0  0  0  0 
  9 12  1  0  0  0  0 
 10 13  1  0  0  0  0 
 11 14  1  0  0  0  0 
 11 15  2  0  0  0  0 
 11 16  1  0  0  0  0 
 14 17  1  0  0  0  0 
 16 18  1  0  0  0  0 
M  END
> <Name>
PHOSPHAMIDON

> <Source>
NIST2DMolFile

> <Tox>
-4.783

> <CAS>
297-99-4

$$$$

  CDK

 16 16  0  0  0  0  0  0  0  0999 V2000
    5.4978   -2.9728    0.0000 S   0  0  0  0  0  0  0  0  0  0  0  0
    6.6529   -2.3012    0.0000 P   0  0  0  0  0  0  0  0  0  0  0  0
    5.9813   -1.1551    0.0000 O   0  0  0  0  0  0  0  0  0  0  0  0
    7.7990   -1.6386    0.0000 O   0  0  0  0  0  0  0  0  0  0  0  0
    7.3155   -3.4563    0.0000 O   0  0  0  0  0  0  0  0  0  0  0  0
    4.6561   -1.1551    0.0000 C   0  0  0  0  0  0  0  0  0  0  0  0
    8.9541   -2.3012    0.0000 C   0  0  0  0  0  0  0  0  0  0  0  0
    8.6497   -3.4563    0.0000 C   0  0  0  0  0  0  0  0  0  0  0  0
    3.9935   -2.3012    0.0000 C   0  0  0  0  0  0  0  0  0  0  0  0
    3.9935   -0.0000    0.0000 C   0  0  0  0  0  0  0  0  0  0  0  0
    2.6594   -2.3012    0.0000 C   0  0  0  0  0  0  0  0  0  0  0  0
    2.6594   -0.0000    0.0000 C   0  0  0  0  0  0  0  0  0  0  0  0
    1.9968   -1.1551    0.0000 C   0  0  0  0  0  0  0  0  0  0  0  0
    0.6626   -1.1551    0.0000 N   0  0  0  0  0  0  0  0  0  0  0  0
    0.0000   -2.3012    0.0000 O   0  0  0  0  0  0  0  0  0  0  0  0
    0.0000   -0.0000    0.0000 O   0  0  0  0  0  0  0  0  0  0  0  0
  1  2  2  0  0  0  0 
  2  3  1  0  0  0  0 
  2  4  1  0  0  0  0 
  2  5  1  0  0  0  0 
  3  6  1  0  0  0  0 
  4  7  1  0  0  0  0 
  5  8  1  0  0  0  0 
  6  9  2  0  0  0  0 
  6 10  1  0  0  0  0 
  9 11  1  0  0  0  0 
 12 10  2  0  0  0  0 
 11 13  2  0  0  0  0 
 13 12  1  0  0  0  0 
 13 14  1  0  0  0  0 
 14 15  2  0  0  0  0 
 14 16  1  0  0  0  0 
M  CHG  1  14   1
M  CHG  1  16  -1
M  END
> <Name>
PARATHION METHYL

> <Source>
DSSTox2DMolFile

> <Tox>
-5.456

> <CAS>
298-00-0

$$$$

  CDK

 13 12  0  0  0  0  0  0  0  0999 V2000
    4.6591   -1.1561    0.0000 P   0  0  0  0  0  0  0  0  0  0  0  0
    3.9836   -2.3052    0.0000 S   0  0  0  0  0  0  0  0  0  0  0  0
    5.3138   -0.0000    0.0000 S   0  0  0  0  0  0  0  0  0  0  0  0
    5.8083   -1.8107    0.0000 O   0  0  0  0  0  0  0  0  0  0  0  0
    3.5031   -0.4805    0.0000 O   0  0  0  0  0  0  0  0  0  0  0  0
    2.6604   -2.3052    0.0000 C   0  0  0  0  0  0  0  0  0  0  0  0
    5.8083   -3.1409    0.0000 C   0  0  0  0  0  0  0  0  0  0  0  0
    2.3539   -1.1561    0.0000 C   0  0  0  0  0  0  0  0  0  0  0  0
    1.9988   -3.4404    0.0000 S   0  0  0  0  0  0  0  0  0  0  0  0
    6.9643   -3.8095    0.0000 C   0  0  0  0  0  0  0  0  0  0  0  0
    1.1979   -0.4805    0.0000 C   0  0  0  0  0  0  0  0  0  0  0  0
    0.6755   -3.4404    0.0000 C   0  0  0  0  0  0  0  0  0  0  0  0
    0.0000   -4.5965    0.0000 C   0  0  0  0  0  0  0  0  0  0  0  0
  1  2  1  0  0  0  0 
  1  3  2  0  0  0  0 
  1  4  1  0  0  0  0 
  1  5  1  0  0  0  0 
  2  6  1  0  0  0  0 
  4  7  1  0  0  0  0 
  5  8  1  0  0  0  0 
  6  9  1  0  0  0  0 
  7 10  1  0  0  0  0 
  8 11  1  0  0  0  0 
  9 12  1  0  0  0  0 
 12 13  1  0  0  0  0 
M  END
> <Name>
PHORATE

> <Source>
DSSTox2DMolFile

> <Tox>
-3.195

> <CAS>
298-02-2

$$$$

  CDK

 14 13  0  0  0  0  0  0  0  0999 V2000
    1.1516   -0.0000    0.0000 C   0  0  0  0  0  0  0  0  0  0  0  0
    0.0000   -0.6684    0.0000 C   0  0  0  0  0  0  0  0  0  0  0  0
    0.0000   -1.9973    0.0000 O   0  0  0  0  0  0  0  0  0  0  0  0
    1.1516   -2.6576    0.0000 P   0  0  0  0  0  0  0  0  0  0  0  0
    0.4832   -3.8093    0.0000 O   0  0  0  0  0  0  0  0  0  0  0  0
    1.8120   -1.5060    0.0000 S   0  0  0  0  0  0  0  0  0  0  0  0
    2.3033   -3.3261    0.0000 S   0  0  0  0  0  0  0  0  0  0  0  0
    1.1516   -4.9609    0.0000 C   0  0  0  0  0  0  0  0  0  0  0  0
    3.4549   -2.6576    0.0000 C   0  0  0  0  0  0  0  0  0  0  0  0
    2.4805   -4.9609    0.0000 C   0  0  0  0  0  0  0  0  0  0  0  0
    4.5985   -3.3261    0.0000 C   0  0  0  0  0  0  0  0  0  0  0  0
    5.7502   -2.6576    0.0000 S   0  0  0  0  0  0  0  0  0  0  0  0
    6.9018   -3.3261    0.0000 C   0  0  0  0  0  0  0  0  0  0  0  0
    8.0535   -2.6576    0.0000 C   0  0  0  0  0  0  0  0  0  0  0  0
  1  2  1  0  0  0  0 
  2  3  1  0  0  0  0 
  3  4  1  0  0  0  0 
  4  5  1  0  0  0  0 
  4  6  2  0  0  0  0 
  4  7  1  0  0  0  0 
  5  8  1  0  0  0  0 
  7  9  1  0  0  0  0 
  8 10  1  0  0  0  0 
  9 11  1  0  0  0  0 
 11 12  1  0  0  0  0 
 12 13  1  0  0  0  0 
 13 14  1  0  0  0  0 
M  END
> <Name>
DISULFOTON

> <Source>
DSSTox2DMolFile

> <Tox>
-4.011

> <CAS>
298-04-4

$$$$

  CDK

 21 20  0  0  0  0  0  0  0  0999 V2000
    6.0677   -0.2552    0.4372 O   0  0  0  0  0  0  0  0  0  0  0  0
    4.7522    0.0236    0.2111 C   0  0  0  0  0  0  0  0  0  0  0  0
    6.9334    0.8816    0.5156 C   0  0  0  0  0  0  0  0  0  0  0  0
    4.2624    1.1371    0.0731 O   0  0  0  0  0  0  0  0  0  0  0  0
    3.9542   -1.2554    0.1535 C   0  0  0  0  0  0  0  0  0  0  0  0
    2.4620   -1.0042   -0.0434 C   0  0  0  0  0  0  0  0  0  0  0  0
    1.6600   -2.3043   -0.1640 C   0  0  0  0  0  0  0  0  0  0  0  0
    0.1657   -2.0164   -0.3246 C   0  0  0  0  0  0  0  0  0  0  0  0
   -0.6973   -3.2805   -0.3794 C   0  0  0  0  0  0  0  0  0  0  0  0
   -2.1991   -2.9856   -0.4658 C   0  0  0  0  0  0  0  0  0  0  0  0
   -2.7206   -2.1915    0.7374 C   0  0  0  0  0  0  0  0  0  0  0  0
   -4.2040   -1.9677    0.6798 C   0  0  0  0  0  0  0  0  0  0  0  0
   -4.7776   -0.8737    0.1569 C   0  0  0  0  0  0  0  0  0  0  0  0
   -3.9996    0.2636   -0.4363 C   0  0  0  0  0  0  0  0  0  0  0  0
   -4.2823    1.5517    0.2798 C   0  0  0  0  0  0  0  0  0  0  0  0
   -3.4003    2.3360    0.9195 C   0  0  0  0  0  0  0  0  0  0  0  0
   -1.9241    2.1105    1.0768 C   0  0  0  0  0  0  0  0  0  0  0  0
   -1.1320    3.2574    0.5199 C   0  0  0  0  0  0  0  0  0  0  0  0
   -0.2300    3.1391   -0.4657 C   0  0  0  0  0  0  0  0  0  0  0  0
    0.1010    1.8393   -1.1377 C   0  0  0  0  0  0  0  0  0  0  0  0
   -0.7919    1.5946   -2.3439 C   0  0  0  0  0  0  0  0  0  0  0  0
  1  2  1  0  0  0  0 
  1  3  1  0  0  0  0 
  4  2  2  0  0  0  0 
  5  2  1  0  0  0  0 
  6  5  1  0  0  0  0 
  7  6  1  0  0  0  0 
  8  7  1  0  0  0  0 
  8  9  1  0  0  0  0 
  9 10  1  0  0  0  0 
 10 11  1  0  0  0  0 
 11 12  1  0  0  0  0 
 12 13  2  0  0  0  0 
 13 14  1  0  0  0  0 
 14 15  1  0  0  0  0 
 15 16  2  0  0  0  0 
 16 17  1  0  0  0  0 
 17 18  1  0  0  0  0 
 18 19  2  0  0  0  0 
 19 20  1  0  0  0  0 
 20 21  1  0  0  0  0 
M  END
> <Name>
Methyl linolenate

> <Source>
Chemidplus3DMolFile

> <Tox>
-5.295

> <CAS>
301-00-8

$$$$

  CDK

  7  6  0  0  0  0  0  0  0  0999 V2000
    2.6608   -1.9956    0.0000 Cl  0  0  0  0  0  0  0  0  0  0  0  0
    1.3304   -1.9956    0.0000 C   0  0  0  0  0  0  0  0  0  0  0  0
    1.3304   -0.6652    0.0000 C   0  0  0  0  0  0  0  0  0  0  0  0
    1.3304   -3.3260    0.0000 Cl  0  0  0  0  0  0  0  0  0  0  0  0
    0.0000   -1.9956    0.0000 Cl  0  0  0  0  0  0  0  0  0  0  0  0
    0.1796   -0.0000    0.0000 O   0  0  0  0  0  0  0  0  0  0  0  0
    2.4812   -0.0000    0.0000 O   0  0  0  0  0  0  0  0  0  0  0  0
  1  2  1  0  0  0  0 
  2  3  1  0  0  0  0 
  2  4  1  0  0  0  0 
  2  5  1  0  0  0  0 
  3  6  1  0  0  0  0 
  3  7  1  0  0  0  0 
M  END
> <Name>
CHORAL HYDRATE

> <Source>
DSSTox2DMolFile

> <Tox>
1.176

> <CAS>
302-17-0

$$$$

  CDK

  7  6  0  0  0  0  0  0  0  0999 V2000
    1.3355   -1.3355    0.0000 C   0  0  0  0  0  0  0  0  0  0  0  0
    2.6711   -1.3355    0.0000 C   0  0  0  0  0  0  0  0  0  0  0  0
    1.3355   -0.0000    0.0000 F   0  0  0  0  0  0  0  0  0  0  0  0
    0.0000   -1.3355    0.0000 F   0  0  0  0  0  0  0  0  0  0  0  0
    1.3355   -2.6711    0.0000 F   0  0  0  0  0  0  0  0  0  0  0  0
    3.3140   -2.4954    0.0000 Cl  0  0  0  0  0  0  0  0  0  0  0  0
    3.3140   -0.1922    0.0000 Cl  0  0  0  0  0  0  0  0  0  0  0  0
  1  2  1  0  0  0  0 
  1  3  1  0  0  0  0 
  1  4  1  0  0  0  0 
  1  5  1  0  0  0  0 
  2  6  1  0  0  0  0 
  2  7  1  0  0  0  0 
M  END
> <Name>
1,1,1-TRIFLUORO-2,2-DICHLOROETHANE

> <Source>
DSSTox2DMolFile

> <Tox>
2.856

> <CAS>
306-83-2

$$$$

  CDK

 18 21  0  0  0  0  0  0  0  0999 V2000
    4.3850   -2.1587    0.0000 C   0  0  0  0  0  0  0  0  0  0  0  0
    3.2104   -2.1095    0.0000 C   0  0  0  0  0  0  0  0  0  0  0  0
    4.1821   -0.9164    0.0000 C   0  0  0  0  0  0  0  0  0  0  0  0
    5.1845   -3.0750    0.0000 C   0  0  0  0  0  0  0  0  0  0  0  0
    5.3567   -1.7958    0.0000 Cl  0  0  0  0  0  0  0  0  0  0  0  0
    2.5400   -3.2473    0.0000 C   0  0  0  0  0  0  0  0  0  0  0  0
    1.9188   -2.6568    0.0000 C   0  0  0  0  0  0  0  0  0  0  0  0
    3.8869   -3.2473    0.0000 C   0  0  0  0  0  0  0  0  0  0  0  0
    3.3887   -0.0000    0.0000 Cl  0  0  0  0  0  0  0  0  0  0  0  0
    5.0615   -0.3260    0.0000 Cl  0  0  0  0  0  0  0  0  0  0  0  0
    4.6126   -4.2128    0.0000 C   0  0  0  0  0  0  0  0  0  0  0  0
    6.1501   -2.7798    0.0000 Cl  0  0  0  0  0  0  0  0  0  0  0  0
    1.3653   -3.6962    0.0000 C   0  0  0  0  0  0  0  0  0  0  0  0
    1.6052   -4.8340    0.0000 C   0  0  0  0  0  0  0  0  0  0  0  0
    0.7073   -2.0726    0.0000 C   0  0  0  0  0  0  0  0  0  0  0  0
    3.2657   -4.4404    0.0000 Cl  0  0  0  0  0  0  0  0  0  0  0  0
    4.5449   -5.2337    0.0000 Cl  0  0  0  0  0  0  0  0  0  0  0  0
    0.0000   -3.0750    0.0000 C   0  0  0  0  0  0  0  0  0  0  0  0
  1  2  1  0  0  0  0 
  1  3  1  0  0  0  0 
  1  4  1  0  0  0  0 
  1  5  1  0  0  0  0 
  2  6  1  0  0  0  0 
  2  7  1  0  0  0  0 
  3  8  1  0  0  0  0 
  3  9  1  0  0  0  0 
  3 10  1  0  0  0  0 
  4 11  2  0  0  0  0 
  4 12  1  0  0  0  0 
  6 13  1  0  0  0  0 
  6  8  1  0  0  0  0 
  7 14  1  0  0  0  0 
  7 15  1  0  0  0  0 
  8 16  1  0  0  0  0 
  8 11  1  0  0  0  0 
 11 17  1  0  0  0  0 
 13 18  1  0  0  0  0 
 13 14  1  0  0  0  0 
 15 18  2  0  0  0  0 
M  END
> <Name>
ALDRIN

> <Source>
DSSTox2DMolFile

> <Tox>
-3.921

> <CAS>
309-00-2

$$$$

  CDK

 18 18  0  0  0  0  0  0  0  0999 V2000
    0.6670   -4.5983    0.0000 N   0  0  0  0  0  0  0  0  0  0  0  0
    1.9909   -4.5983    0.0000 C   0  0  0  0  0  0  0  0  0  0  0  0
    0.0000   -3.4462    0.0000 O   0  0  0  0  0  0  0  0  0  0  0  0
    0.0000   -5.7504    0.0000 O   0  0  0  0  0  0  0  0  0  0  0  0
    2.6579   -5.7504    0.0000 C   0  0  0  0  0  0  0  0  0  0  0  0
    2.6579   -3.4462    0.0000 C   0  0  0  0  0  0  0  0  0  0  0  0
    3.9919   -5.7504    0.0000 C   0  0  0  0  0  0  0  0  0  0  0  0
    3.9919   -3.4462    0.0000 C   0  0  0  0  0  0  0  0  0  0  0  0
    4.6589   -4.5983    0.0000 C   0  0  0  0  0  0  0  0  0  0  0  0
    5.9727   -4.5983    0.0000 O   0  0  0  0  0  0  0  0  0  0  0  0
    6.6599   -3.4462    0.0000 P   0  0  0  0  0  0  0  0  0  0  0  0
    5.4977   -2.7792    0.0000 O   0  0  0  0  0  0  0  0  0  0  0  0
    7.3168   -2.3042    0.0000 O   0  0  0  0  0  0  0  0  0  0  0  0
    7.8120   -4.1334    0.0000 O   0  0  0  0  0  0  0  0  0  0  0  0
    6.6700   -1.1521    0.0000 C   0  0  0  0  0  0  0  0  0  0  0  0
    8.9540   -3.4563    0.0000 C   0  0  0  0  0  0  0  0  0  0  0  0
    7.3168   -0.0000    0.0000 C   0  0  0  0  0  0  0  0  0  0  0  0
   10.1061   -4.1334    0.0000 C   0  0  0  0  0  0  0  0  0  0  0  0
  1  2  1  0  0  0  0 
  1  3  1  0  0  0  0 
  1  4  2  0  0  0  0 
  2  5  2  0  0  0  0 
  2  6  1  0  0  0  0 
  5  7  1  0  0  0  0 
  6  8  2  0  0  0  0 
  9  7  2  0  0  0  0 
  9  8  1  0  0  0  0 
 10  9  1  0  0  0  0 
 11 10  1  0  0  0  0 
 11 12  2  0  0  0  0 
 11 13  1  0  0  0  0 
 11 14  1  0  0  0  0 
 13 15  1  0  0  0  0 
 14 16  1  0  0  0  0 
 15 17  1  0  0  0  0 
 16 18  1  0  0  0  0 
M  CHG  1   1   1
M  CHG  1   3  -1
M  END
> <Name>
PARAOXON

> <Source>
DSSTox2DMolFile

> <Tox>
-5.959

> <CAS>
311-45-5

$$$$

  CDK

 40 39  0  0  0  0  0  0  0  0999 V2000
    5.9956   -3.7742    0.0000 C   0  0  0  0  0  0  0  0  0  0  0  0
    7.1988   -3.0749    0.0000 C   0  0  0  0  0  0  0  0  0  0  0  0
    4.8026   -4.4632    0.0000 N   0  0  0  0  0  0  0  0  0  0  0  0
    5.2962   -2.5813    0.0000 F   0  0  0  0  0  0  0  0  0  0  0  0
    6.6846   -4.9774    0.0000 F   0  0  0  0  0  0  0  0  0  0  0  0
    8.3814   -2.3962    0.0000 C   0  0  0  0  0  0  0  0  0  0  0  0
    7.8878   -4.2781    0.0000 F   0  0  0  0  0  0  0  0  0  0  0  0
    6.4995   -1.8820    0.0000 F   0  0  0  0  0  0  0  0  0  0  0  0
    3.5994   -3.7742    0.0000 C   0  0  0  0  0  0  0  0  0  0  0  0
    4.8026   -5.8413    0.0000 C   0  0  0  0  0  0  0  0  0  0  0  0
    9.0807   -3.5994    0.0000 C   0  0  0  0  0  0  0  0  0  0  0  0
    7.7027   -1.1929    0.0000 F   0  0  0  0  0  0  0  0  0  0  0  0
    9.5847   -1.6969    0.0000 F   0  0  0  0  0  0  0  0  0  0  0  0
    2.3962   -3.0749    0.0000 C   0  0  0  0  0  0  0  0  0  0  0  0
    2.9001   -4.9774    0.0000 F   0  0  0  0  0  0  0  0  0  0  0  0
    4.2884   -2.5813    0.0000 F   0  0  0  0  0  0  0  0  0  0  0  0
    4.8026   -7.2296    0.0000 C   0  0  0  0  0  0  0  0  0  0  0  0
    6.1807   -5.8413    0.0000 F   0  0  0  0  0  0  0  0  0  0  0  0
    3.4143   -5.8413    0.0000 F   0  0  0  0  0  0  0  0  0  0  0  0
    8.4843   -3.9285    0.0000 F   0  0  0  0  0  0  0  0  0  0  0  0
   10.2840   -2.9001    0.0000 F   0  0  0  0  0  0  0  0  0  0  0  0
    9.7698   -4.7820    0.0000 F   0  0  0  0  0  0  0  0  0  0  0  0
    1.2032   -2.3962    0.0000 C   0  0  0  0  0  0  0  0  0  0  0  0
    3.0852   -1.8820    0.0000 F   0  0  0  0  0  0  0  0  0  0  0  0
    1.6969   -4.2781    0.0000 F   0  0  0  0  0  0  0  0  0  0  0  0
    4.8026   -8.6077    0.0000 C   0  0  0  0  0  0  0  0  0  0  0  0
    3.4143   -7.2296    0.0000 F   0  0  0  0  0  0  0  0  0  0  0  0
    6.1807   -7.2296    0.0000 F   0  0  0  0  0  0  0  0  0  0  0  0
    1.9025   -1.1929    0.0000 C   0  0  0  0  0  0  0  0  0  0  0  0
    0.5142   -3.5994    0.0000 F   0  0  0  0  0  0  0  0  0  0  0  0
    0.0000   -1.6969    0.0000 F   0  0  0  0  0  0  0  0  0  0  0  0
    3.4143   -8.6077    0.0000 C   0  0  0  0  0  0  0  0  0  0  0  0
    6.1807   -8.6077    0.0000 F   0  0  0  0  0  0  0  0  0  0  0  0
    4.8026   -9.9960    0.0000 F   0  0  0  0  0  0  0  0  0  0  0  0
    2.4990   -1.5426    0.0000 F   0  0  0  0  0  0  0  0  0  0  0  0
    0.6993   -0.4936    0.0000 F   0  0  0  0  0  0  0  0  0  0  0  0
    2.5813   -0.0000    0.0000 F   0  0  0  0  0  0  0  0  0  0  0  0
    3.4143   -7.9289    0.0000 F   0  0  0  0  0  0  0  0  0  0  0  0
    3.4143   -9.9960    0.0000 F   0  0  0  0  0  0  0  0  0  0  0  0
    2.0362   -8.6077    0.0000 F   0  0  0  0  0  0  0  0  0  0  0  0
  1  2  1  0  0  0  0 
  1  3  1  0  0  0  0 
  1  4  1  0  0  0  0 
  1  5  1  0  0  0  0 
  2  6  1  0  0  0  0 
  2  7  1  0  0  0  0 
  2  8  1  0  0  0  0 
  3  9  1  0  0  0  0 
  3 10  1  0  0  0  0 
  6 11  1  0  0  0  0 
  6 12  1  0  0  0  0 
  6 13  1  0  0  0  0 
  9 14  1  0  0  0  0 
  9 15  1  0  0  0  0 
  9 16  1  0  0  0  0 
 10 17  1  0  0  0  0 
 10 18  1  0  0  0  0 
 10 19  1  0  0  0  0 
 11 20  1  0  0  0  0 
 11 21  1  0  0  0  0 
 11 22  1  0  0  0  0 
 14 23  1  0  0  0  0 
 14 24  1  0  0  0  0 
 14 25  1  0  0  0  0 
 17 26  1  0  0  0  0 
 17 27  1  0  0  0  0 
 17 28  1  0  0  0  0 
 23 29  1  0  0  0  0 
 23 30  1  0  0  0  0 
 23 31  1  0  0  0  0 
 26 32  1  0  0  0  0 
 26 33  1  0  0  0  0 
 26 34  1  0  0  0  0 
 29 35  1  0  0  0  0 
 29 36  1  0  0  0  0 
 29 37  1  0  0  0  0 
 32 38  1  0  0  0  0 
 32 39  1  0  0  0  0 
 32 40  1  0  0  0  0 
M  END
> <Name>
HEPTACOSAFLUOROTRIBUTYLAMINE

> <Source>
DSSTox2DMolFile

> <Tox>
-0.258

> <CAS>
311-89-7

$$$$

  CDK

 14 14  0  0  0  0  0  0  0  0999 V2000
    4.6549   -0.0000    0.0000 Br  0  0  0  0  0  0  0  0  0  0  0  0
    3.9907   -1.1547    0.0000 C   0  0  0  0  0  0  0  0  0  0  0  0
    4.6549   -2.3035    0.0000 C   0  0  0  0  0  0  0  0  0  0  0  0
    2.6565   -1.1547    0.0000 C   0  0  0  0  0  0  0  0  0  0  0  0
    5.9831   -2.3035    0.0000 C   0  0  0  0  0  0  0  0  0  0  0  0
    3.9907   -3.4582    0.0000 N   0  0  0  0  0  0  0  0  0  0  0  0
    1.9924   -2.3035    0.0000 N   0  0  0  0  0  0  0  0  0  0  0  0
    1.9924   -0.0000    0.0000 O   0  0  0  0  0  0  0  0  0  0  0  0
    2.6565   -3.4582    0.0000 C   0  0  0  0  0  0  0  0  0  0  0  0
    0.6641   -2.3035    0.0000 C   0  0  0  0  0  0  0  0  0  0  0  0
    1.9924   -4.6070    0.0000 O   0  0  0  0  0  0  0  0  0  0  0  0
    0.0000   -1.1547    0.0000 C   0  0  0  0  0  0  0  0  0  0  0  0
    0.0000   -3.4582    0.0000 C   0  0  0  0  0  0  0  0  0  0  0  0
    0.6641   -4.6070    0.0000 C   0  0  0  0  0  0  0  0  0  0  0  0
  1  2  1  0  0  0  0 
  2  3  2  0  0  0  0 
  2  4  1  0  0  0  0 
  3  5  1  0  0  0  0 
  3  6  1  0  0  0  0 
  7  4  1  0  0  0  0 
  4  8  2  0  0  0  0 
  6  9  1  0  0  0  0 
  9  7  1  0  0  0  0 
  7 10  1  0  0  0  0 
  9 11  2  0  0  0  0 
 10 12  1  0  0  0  0 
 10 13  1  0  0  0  0 
 13 14  1  0  0  0  0 
M  END
> <Name>
BROMACIL

> <Source>
DSSTox2DMolFile

> <Tox>
-6.513

> <CAS>
314-40-9

$$$$

  CDK

 12 12  0  0  0  0  0  0  0  0999 V2000
    3.4507   -1.9939    0.0000 C   0  0  0  0  0  0  0  0  0  0  0  0
    3.4507   -3.3231    0.0000 C   0  0  0  0  0  0  0  0  0  0  0  0
    2.3076   -1.3292    0.0000 C   0  0  0  0  0  0  0  0  0  0  0  0
    4.6098   -1.3292    0.0000 Cl  0  0  0  0  0  0  0  0  0  0  0  0
    2.3076   -3.9877    0.0000 C   0  0  0  0  0  0  0  0  0  0  0  0
    4.6098   -3.9877    0.0000 Cl  0  0  0  0  0  0  0  0  0  0  0  0
    1.1591   -1.9939    0.0000 C   0  0  0  0  0  0  0  0  0  0  0  0
    2.3076   -0.0000    0.0000 Cl  0  0  0  0  0  0  0  0  0  0  0  0
    1.1591   -3.3231    0.0000 C   0  0  0  0  0  0  0  0  0  0  0  0
    2.3076   -5.3170    0.0000 Cl  0  0  0  0  0  0  0  0  0  0  0  0
    0.0000   -1.3292    0.0000 Cl  0  0  0  0  0  0  0  0  0  0  0  0
    0.0000   -3.9877    0.0000 Cl  0  0  0  0  0  0  0  0  0  0  0  0
  1  2  1  0  0  0  0 
  1  3  1  0  0  0  0 
  1  4  1  1  0  0  0 
  2  5  1  0  0  0  0 
  2  6  1  6  0  0  0 
  3  7  1  0  0  0  0 
  3  8  1  1  0  0  0 
  5  9  1  0  0  0  0 
  5 10  1  1  0  0  0 
  7  9  1  0  0  0  0 
  7 11  1  6  0  0  0 
  9 12  1  6  0  0  0 
M  END
> <Name>
ALPHA-HEXACHLOROCYCLOHEXANE

> <Source>
DSSTox2DMolFile

> <Tox>
-4.347

> <CAS>
319-84-6

$$$$

  CDK

 12 12  0  0  0  0  0  0  0  0999 V2000
   -0.5236    0.5010    0.0009 C   0  0  0  0  0  0  0  0  0  0  0  0
    0.0620   -0.7686    0.0008 C   0  0  0  0  0  0  0  0  0  0  0  0
    0.2778    1.6403    0.0012 C   0  0  0  0  0  0  0  0  0  0  0  0
   -2.0480    0.6012   -0.0001 C   0  0  0  0  0  0  0  0  0  0  0  0
    1.4479   -0.9036    0.0000 C   0  0  0  0  0  0  0  0  0  0  0  0
   -0.9019   -2.1415    0.0003 Cl  0  0  0  0  0  0  0  0  0  0  0  0
    1.6622    1.5121    0.0009 C   0  0  0  0  0  0  0  0  0  0  0  0
   -2.6282    0.0047    1.0672 F   0  0  0  0  0  0  0  0  0  0  0  0
   -2.6256    0.0104   -1.0720 F   0  0  0  0  0  0  0  0  0  0  0  0
   -2.5480    1.8569    0.0027 F   0  0  0  0  0  0  0  0  0  0  0  0
    2.2386    0.2428    0.0002 C   0  0  0  0  0  0  0  0  0  0  0  0
    3.9121    0.0919   -0.0005 Cl  0  0  0  0  0  0  0  0  0  0  0  0
  1  2  1  0  0  0  0 
  1  3  2  0  0  0  0 
  1  4  1  0  0  0  0 
  2  5  2  0  0  0  0 
  2  6  1  0  0  0  0 
  7  3  1  0  0  0  0 
  4  8  1  0  0  0  0 
  4  9  1  0  0  0  0 
  4 10  1  0  0  0  0 
  5 11  1  0  0  0  0 
 11  7  2  0  0  0  0 
 11 12  1  0  0  0  0 
M  END
> <Name>
2,4-DICHLORO(TRIFLUOROMETHYL)BENZENE

> <Source>
DougDB3DMolFile

> <Tox>
0.045

> <CAS>
320-60-5

$$$$

  CDK

 10 10  0  0  0  0  0  0  0  0999 V2000
    0.9114    0.7089    0.0000 C   0  0  0  0  0  0  0  0  0  0  0  0
    1.7722    0.2025    0.0000 C   0  0  0  0  0  0  0  0  0  0  0  0
    0.9114    1.7216    0.0000 C   0  0  0  0  0  0  0  0  0  0  0  0
    0.2025    0.0000    0.0000 F   0  0  0  0  0  0  0  0  0  0  0  0
    2.6330    0.7089    0.0000 C   0  0  0  0  0  0  0  0  0  0  0  0
    1.7722    2.2279    0.0000 C   0  0  0  0  0  0  0  0  0  0  0  0
    0.0000    2.2279    0.0000 F   0  0  0  0  0  0  0  0  0  0  0  0
    2.6330    1.7216    0.0000 C   0  0  0  0  0  0  0  0  0  0  0  0
    3.2913    0.0000    0.0000 F   0  0  0  0  0  0  0  0  0  0  0  0
    3.2913    2.4305    0.0000 F   0  0  0  0  0  0  0  0  0  0  0  0
  1  2  2  0  0  0  0 
  3  1  1  0  0  0  0 
  1  4  1  0  0  0  0 
  2  5  1  0  0  0  0 
  6  3  2  0  0  0  0 
  3  7  1  0  0  0  0 
  5  8  2  0  0  0  0 
  5  9  1  0  0  0  0 
  8  6  1  0  0  0  0 
  8 10  1  0  0  0  0 
M  END
> <Name>
1,2,4,5-TETRAFLUOROBENZENE

> <Source>
NIST2DMolFile

> <Tox>
1.754

> <CAS>
327-54-8

$$$$

  CDK

 17 17  0  0  0  0  0  0  0  0999 V2000
   -3.7680    0.8739   -0.2554 C   0  0  0  0  0  0  0  0  0  0  0  0
   -4.0424    1.5774   -1.5557 C   0  0  0  0  0  0  0  0  0  0  0  0
   -2.4217   -0.3690   -0.4006 P   0  0  0  0  0  0  0  0  0  0  0  0
   -2.4765   -1.2502    1.0523 O   0  0  0  0  0  0  0  0  0  0  0  0
   -1.1347    0.7364   -0.0320 O   0  0  0  0  0  0  0  0  0  0  0  0
   -2.2997   -1.5079   -1.9499 S   0  0  0  0  0  0  0  0  0  0  0  0
   -2.5486   -0.6594    2.3239 C   0  0  0  0  0  0  0  0  0  0  0  0
    0.2040    0.5218   -0.0422 C   0  0  0  0  0  0  0  0  0  0  0  0
   -2.7532   -1.7610    3.3506 C   0  0  0  0  0  0  0  0  0  0  0  0
    1.0075    1.6673    0.1384 C   0  0  0  0  0  0  0  0  0  0  0  0
    0.8054   -0.7352   -0.1916 C   0  0  0  0  0  0  0  0  0  0  0  0
    2.3927    1.5528    0.1738 C   0  0  0  0  0  0  0  0  0  0  0  0
    0.3146    3.1917    0.3178 Cl  0  0  0  0  0  0  0  0  0  0  0  0
    2.1931   -0.8335   -0.1543 C   0  0  0  0  0  0  0  0  0  0  0  0
    2.9847    0.3012    0.0293 C   0  0  0  0  0  0  0  0  0  0  0  0
    2.9209   -2.3349   -0.3334 Cl  0  0  0  0  0  0  0  0  0  0  0  0
    4.6584    0.1582    0.0735 Cl  0  0  0  0  0  0  0  0  0  0  0  0
  1  2  1  0  0  0  0 
  1  3  1  0  0  0  0 
  3  4  1  0  0  0  0 
  3  5  1  0  0  0  0 
  3  6  2  0  0  0  0 
  4  7  1  0  0  0  0 
  5  8  1  0  0  0  0 
  7  9  1  0  0  0  0 
  8 10  1  0  0  0  0 
  8 11  2  0  0  0  0 
 10 12  2  0  0  0  0 
 10 13  1  0  0  0  0 
 14 11  1  0  0  0  0 
 12 15  1  0  0  0  0 
 15 14  2  0  0  0  0 
 14 16  1  0  0  0  0 
 15 17  1  0  0  0  0 
M  END
> <Name>
TRICHLORONATE

> <Source>
DougDB3DMolFile

> <Tox>
-4.824

> <CAS>
327-98-0

$$$$

  CDK

 10 10  0  0  0  0  0  0  0  0999 V2000
    1.7819    0.0002   -0.0505 Si  0  0  0  0  0  0  0  0  0  0  0  0
    2.2756   -1.3027   -0.8352 F   0  0  0  0  0  0  0  0  0  0  0  0
    2.2771    1.3016   -0.8361 F   0  0  0  0  0  0  0  0  0  0  0  0
   -0.0815    0.0001   -0.0135 C   0  0  0  0  0  0  0  0  0  0  0  0
    2.5217    0.0003    1.6386 C   0  0  0  0  0  0  0  0  0  0  0  0
   -0.7788    1.2081    0.0001 C   0  0  0  0  0  0  0  0  0  0  0  0
   -0.7787   -1.2078    0.0003 C   0  0  0  0  0  0  0  0  0  0  0  0
   -2.1734    1.2081    0.0275 C   0  0  0  0  0  0  0  0  0  0  0  0
   -2.1733   -1.2079    0.0277 C   0  0  0  0  0  0  0  0  0  0  0  0
   -2.8707    0.0000    0.0413 C   0  0  0  0  0  0  0  0  0  0  0  0
  1  2  1  0  0  0  0 
  1  3  1  0  0  0  0 
  1  4  1  0  0  0  0 
  1  5  1  0  0  0  0 
  4  6  2  0  0  0  0 
  4  7  1  0  0  0  0 
  6  8  1  0  0  0  0 
  7  9  2  0  0  0  0 
  8 10  2  0  0  0  0 
  9 10  1  0  0  0  0 
M  END
> <Name>
DIFLUOROMETHYLPHENYLSILANE

> <Source>
Chemidplus3DMolFile

> <Tox>
0.881

> <CAS>
328-57-4

$$$$

  CDK

 13 13  0  0  0  0  0  0  0  0999 V2000
    4.6563   -0.0000    0.0000 O   0  0  0  0  0  0  0  0  0  0  0  0
    3.9911   -1.1574    0.0000 C   0  0  0  0  0  0  0  0  0  0  0  0
    4.6563   -2.3082    0.0000 C   0  0  0  0  0  0  0  0  0  0  0  0
    2.6607   -1.1574    0.0000 C   0  0  0  0  0  0  0  0  0  0  0  0
    5.9867   -2.3082    0.0000 N   0  0  0  0  0  0  0  0  0  0  0  0
    3.9911   -3.4590    0.0000 C   0  0  0  0  0  0  0  0  0  0  0  0
    1.9956   -2.3082    0.0000 C   0  0  0  0  0  0  0  0  0  0  0  0
    6.6519   -3.4590    0.0000 O   0  0  0  0  0  0  0  0  0  0  0  0
    6.6519   -1.1574    0.0000 O   0  0  0  0  0  0  0  0  0  0  0  0
    2.6607   -3.4590    0.0000 C   0  0  0  0  0  0  0  0  0  0  0  0
    0.6652   -2.3082    0.0000 N   0  0  0  0  0  0  0  0  0  0  0  0
    0.0000   -1.1574    0.0000 O   0  0  0  0  0  0  0  0  0  0  0  0
    0.0000   -3.4590    0.0000 O   0  0  0  0  0  0  0  0  0  0  0  0
  1  2  1  0  0  0  0 
  2  3  2  0  0  0  0 
  2  4  1  0  0  0  0 
  3  5  1  0  0  0  0 
  3  6  1  0  0  0  0 
  7  4  2  0  0  0  0 
  5  8  2  0  0  0  0 
  5  9  1  0  0  0  0 
  6 10  2  0  0  0  0 
 10  7  1  0  0  0  0 
  7 11  1  0  0  0  0 
 11 12  1  0  0  0  0 
 11 13  2  0  0  0  0 
M  CHG  1   5   1
M  CHG  1   9  -1
M  CHG  1  11   1
M  CHG  1  12  -1
M  END
> <Name>
2,5-DINITROPHENOL

> <Source>
DSSTox2DMolFile

> <Tox>
-3.914

> <CAS>
329-71-5

$$$$

  CDK

 11 11  0  0  0  0  0  0  0  0999 V2000
   -0.4695   -0.2775    0.0000 C   0  0  0  0  0  0  0  0  0  0  0  0
   -0.2257   -1.0657    0.0000 O   0  0  0  0  0  0  0  0  0  0  0  0
    0.2450    0.1350    0.0000 C   0  0  0  0  0  0  0  0  0  0  0  0
   -1.1840    0.1350    0.0000 C   0  0  0  0  0  0  0  0  0  0  0  0
    0.5788   -1.2486    0.0000 P   0  0  0  0  0  0  0  0  0  0  0  0
    0.2450    0.9600    0.0000 C   0  0  0  0  0  0  0  0  0  0  0  0
   -1.1840    0.9600    0.0000 C   0  0  0  0  0  0  0  0  0  0  0  0
    1.1394   -0.6434    0.0000 O   0  0  0  0  0  0  0  0  0  0  0  0
    0.3958   -2.0531    0.0000 F   0  0  0  0  0  0  0  0  0  0  0  0
    1.3832   -1.4316    0.0000 C   0  0  0  0  0  0  0  0  0  0  0  0
   -0.4695    1.3725    0.0000 C   0  0  0  0  0  0  0  0  0  0  0  0
  1  2  1  0  0  0  0 
  1  3  1  0  0  0  0 
  1  4  1  0  0  0  0 
  2  5  1  0  0  0  0 
  3  6  1  0  0  0  0 
  7  4  1  0  0  0  0 
  5  8  2  0  0  0  0 
  5  9  1  0  0  0  0 
  5 10  1  0  0  0  0 
  6 11  1  0  0  0  0 
 11  7  1  0  0  0  0 
M  END
> <Name>
Cyclohexyl methylphosphonofluoridate

> <Source>
Smiles

> <Tox>
-1.357

> <CAS>
329-99-7

$$$$

  CDK

 14 14  0  0  0  0  0  0  0  0999 V2000
    0.0000   -2.6606    0.0000 Cl  0  0  0  0  0  0  0  0  0  0  0  0
    1.1541   -1.9972    0.0000 C   0  0  0  0  0  0  0  0  0  0  0  0
    1.1541   -0.6634    0.0000 C   0  0  0  0  0  0  0  0  0  0  0  0
    2.3012   -2.6606    0.0000 C   0  0  0  0  0  0  0  0  0  0  0  0
    2.3012   -0.0000    0.0000 C   0  0  0  0  0  0  0  0  0  0  0  0
    0.0000   -0.0000    0.0000 Cl  0  0  0  0  0  0  0  0  0  0  0  0
    3.4553   -1.9972    0.0000 C   0  0  0  0  0  0  0  0  0  0  0  0
    3.4553   -0.6634    0.0000 C   0  0  0  0  0  0  0  0  0  0  0  0
    4.6093   -2.6606    0.0000 N   0  0  0  0  0  0  0  0  0  0  0  0
    5.7565   -1.9972    0.0000 C   0  0  0  0  0  0  0  0  0  0  0  0
    6.9106   -2.6606    0.0000 O   0  0  0  0  0  0  0  0  0  0  0  0
    5.7565   -0.6634    0.0000 N   0  0  0  0  0  0  0  0  0  0  0  0
    6.9106   -0.0000    0.0000 C   0  0  0  0  0  0  0  0  0  0  0  0
    4.6093   -0.0000    0.0000 C   0  0  0  0  0  0  0  0  0  0  0  0
  1  2  1  0  0  0  0 
  2  3  2  0  0  0  0 
  2  4  1  0  0  0  0 
  3  5  1  0  0  0  0 
  3  6  1  0  0  0  0 
  7  4  2  0  0  0  0 
  5  8  2  0  0  0  0 
  8  7  1  0  0  0  0 
  7  9  1  0  0  0  0 
  9 10  1  0  0  0  0 
 10 11  2  0  0  0  0 
 10 12  1  0  0  0  0 
 12 13  1  0  0  0  0 
 12 14  1  0  0  0  0 
M  END
> <Name>
DIURON

> <Source>
DSSTox2DMolFile

> <Tox>
-7.161

> <CAS>
330-54-1

$$$$

  CDK

 15 15  0  0  0  0  0  0  0  0999 V2000
    5.8018   -0.6726    0.0000 C   0  0  0  0  0  0  0  0  0  0  0  0
    4.6512   -0.0000    0.0000 N   0  0  0  0  0  0  0  0  0  0  0  0
    5.8018   -2.0015    0.0000 N   0  0  0  0  0  0  0  0  0  0  0  0
    6.9687   -0.0000    0.0000 O   0  0  0  0  0  0  0  0  0  0  0  0
    3.4762   -0.6726    0.0000 C   0  0  0  0  0  0  0  0  0  0  0  0
    6.9606   -2.6497    0.0000 O   0  0  0  0  0  0  0  0  0  0  0  0
    4.6512   -2.6659    0.0000 C   0  0  0  0  0  0  0  0  0  0  0  0
    3.4762   -2.0015    0.0000 C   0  0  0  0  0  0  0  0  0  0  0  0
    2.3499   -0.0081    0.0000 C   0  0  0  0  0  0  0  0  0  0  0  0
    8.1031   -1.9772    0.0000 C   0  0  0  0  0  0  0  0  0  0  0  0
    2.3499   -2.6497    0.0000 C   0  0  0  0  0  0  0  0  0  0  0  0
    1.1912   -0.6807    0.0000 C   0  0  0  0  0  0  0  0  0  0  0  0
    2.3499   -3.9867    0.0000 Cl  0  0  0  0  0  0  0  0  0  0  0  0
    1.1912   -1.9772    0.0000 C   0  0  0  0  0  0  0  0  0  0  0  0
    0.0000   -2.6254    0.0000 Cl  0  0  0  0  0  0  0  0  0  0  0  0
  1  2  1  0  0  0  0 
  1  3  1  0  0  0  0 
  1  4  2  0  0  0  0 
  2  5  1  0  0  0  0 
  3  6  1  0  0  0  0 
  3  7  1  0  0  0  0 
  8  5  1  0  0  0  0 
  5  9  2  0  0  0  0 
  6 10  1  0  0  0  0 
 11  8  2  0  0  0  0 
 12  9  1  0  0  0  0 
 11 13  1  0  0  0  0 
 11 14  1  0  0  0  0 
 14 12  2  0  0  0  0 
 14 15  1  0  0  0  0 
M  END
> <Name>
LINURON

> <Source>
DSSTox2DMolFile

> <Tox>
-5.845

> <CAS>
330-55-2

$$$$

  CDK

 11 10  0  0  0  0  0  0  0  0999 V2000
    1.7441    0.4104    0.0000 C   0  0  0  0  0  0  0  0  0  0  0  0
    2.6161    0.8720    0.0000 O   0  0  0  0  0  0  0  0  0  0  0  0
    0.8720    0.8720    0.0000 C   0  0  0  0  0  0  0  0  0  0  0  0
    3.5394    0.4104    0.0000 C   0  0  0  0  0  0  0  0  0  0  0  0
    0.3591    0.0000    0.0000 F   0  0  0  0  0  0  0  0  0  0  0  0
    0.0000    1.3850    0.0000 F   0  0  0  0  0  0  0  0  0  0  0  0
    1.3850    1.7441    0.0000 F   0  0  0  0  0  0  0  0  0  0  0  0
    4.3602    0.9233    0.0000 C   0  0  0  0  0  0  0  0  0  0  0  0
    3.8472    1.7441    0.0000 F   0  0  0  0  0  0  0  0  0  0  0  0
    5.2322    1.4363    0.0000 F   0  0  0  0  0  0  0  0  0  0  0  0
    4.8731    0.0513    0.0000 F   0  0  0  0  0  0  0  0  0  0  0  0
  1  2  1  0  0  0  0 
  1  3  1  0  0  0  0 
  2  4  1  0  0  0  0 
  3  5  1  0  0  0  0 
  3  6  1  0  0  0  0 
  3  7  1  0  0  0  0 
  4  8  1  0  0  0  0 
  8  9  1  0  0  0  0 
  8 10  1  0  0  0  0 
  8 11  1  0  0  0  0 
M  END
> <Name>
Flurothyl

> <Source>
NIST2DMolFile

> <Tox>
2.193

> <CAS>
333-36-8

$$$$

  CDK

 19 19  0  0  0  0  0  0  0  0999 V2000
    4.8313   -4.1140    0.0000 S   0  0  0  0  0  0  0  0  0  0  0  0
    5.9808   -3.4571    0.0000 P   0  0  0  0  0  0  0  0  0  0  0  0
    5.3153   -2.2990    0.0000 O   0  0  0  0  0  0  0  0  0  0  0  0
    7.1389   -2.7916    0.0000 O   0  0  0  0  0  0  0  0  0  0  0  0
    6.6463   -4.6066    0.0000 O   0  0  0  0  0  0  0  0  0  0  0  0
    3.9930   -2.2990    0.0000 C   0  0  0  0  0  0  0  0  0  0  0  0
    7.1389   -1.4606    0.0000 C   0  0  0  0  0  0  0  0  0  0  0  0
    7.9773   -4.6066    0.0000 C   0  0  0  0  0  0  0  0  0  0  0  0
    3.3275   -3.4571    0.0000 N   0  0  0  0  0  0  0  0  0  0  0  0
    3.3275   -1.1495    0.0000 C   0  0  0  0  0  0  0  0  0  0  0  0
    8.2884   -0.7951    0.0000 C   0  0  0  0  0  0  0  0  0  0  0  0
    8.6428   -3.4571    0.0000 C   0  0  0  0  0  0  0  0  0  0  0  0
    1.9965   -3.4571    0.0000 C   0  0  0  0  0  0  0  0  0  0  0  0
    1.9965   -1.1495    0.0000 C   0  0  0  0  0  0  0  0  0  0  0  0
    1.3310   -2.2990    0.0000 N   0  0  0  0  0  0  0  0  0  0  0  0
    1.3310   -4.6066    0.0000 C   0  0  0  0  0  0  0  0  0  0  0  0
    1.3310   -0.0000    0.0000 C   0  0  0  0  0  0  0  0  0  0  0  0
    1.9965   -5.7561    0.0000 C   0  0  0  0  0  0  0  0  0  0  0  0
    0.0000   -4.6066    0.0000 C   0  0  0  0  0  0  0  0  0  0  0  0
  1  2  2  0  0  0  0 
  2  3  1  0  0  0  0 
  2  4  1  0  0  0  0 
  2  5  1  0  0  0  0 
  3  6  1  0  0  0  0 
  4  7  1  0  0  0  0 
  5  8  1  0  0  0  0 
  6  9  2  0  0  0  0 
  6 10  1  0  0  0  0 
  7 11  1  0  0  0  0 
  8 12  1  0  0  0  0 
  9 13  1  0  0  0  0 
 14 10  2  0  0  0  0 
 13 15  2  0  0  0  0 
 13 16  1  0  0  0  0 
 15 14  1  0  0  0  0 
 14 17  1  0  0  0  0 
 16 18  1  0  0  0  0 
 16 19  1  0  0  0  0 
M  END
> <Name>
DIAZINON

> <Source>
DSSTox2DMolFile

> <Tox>
-4.045

> <CAS>
333-41-5

$$$$

  CDK

 12 11  0  0  0  0  0  0  0  0999 V2000
    0.0000   -1.9913    0.0000 C   0  0  0  0  0  0  0  0  0  0  0  0
    1.1510   -1.3237    0.0000 C   0  0  0  0  0  0  0  0  0  0  0  0
    2.3021   -1.9913    0.0000 C   0  0  0  0  0  0  0  0  0  0  0  0
    3.4531   -1.3237    0.0000 C   0  0  0  0  0  0  0  0  0  0  0  0
    4.6041   -1.9913    0.0000 C   0  0  0  0  0  0  0  0  0  0  0  0
    5.7552   -1.3237    0.0000 C   0  0  0  0  0  0  0  0  0  0  0  0
    6.9062   -1.9913    0.0000 C   0  0  0  0  0  0  0  0  0  0  0  0
    8.0573   -1.3237    0.0000 C   0  0  0  0  0  0  0  0  0  0  0  0
    9.2083   -1.9913    0.0000 C   0  0  0  0  0  0  0  0  0  0  0  0
   10.3593   -1.3237    0.0000 C   0  0  0  0  0  0  0  0  0  0  0  0
   11.5104   -1.9913    0.0000 O   0  0  0  0  0  0  0  0  0  0  0  0
   10.3593   -0.0000    0.0000 O   0  0  0  0  0  0  0  0  0  0  0  0
  1  2  1  0  0  0  0 
  2  3  1  0  0  0  0 
  3  4  1  0  0  0  0 
  4  5  1  0  0  0  0 
  5  6  1  0  0  0  0 
  6  7  1  0  0  0  0 
  7  8  1  0  0  0  0 
  8  9  1  0  0  0  0 
  9 10  1  0  0  0  0 
 10 11  1  0  0  0  0 
 10 12  2  0  0  0  0 
M  END
> <Name>
DECANOIC ACID

> <Source>
DSSTox2DMolFile

> <Tox>
-3.437

> <CAS>
334-48-5

$$$$

  CDK

 11 10  0  0  0  0  0  0  0  0999 V2000
    5.0031   -0.1628   -0.3255 C   0  0  0  0  0  0  0  0  0  0  0  0
    3.6845   -0.8374    0.0526 C   0  0  0  0  0  0  0  0  0  0  0  0
    5.2564    0.9363    0.4340 F   0  0  0  0  0  0  0  0  0  0  0  0
    2.4884    0.0402   -0.2721 C   0  0  0  0  0  0  0  0  0  0  0  0
    1.1841   -0.6498    0.0928 C   0  0  0  0  0  0  0  0  0  0  0  0
   -0.0138    0.2266   -0.2357 C   0  0  0  0  0  0  0  0  0  0  0  0
   -1.3186   -0.4621    0.1305 C   0  0  0  0  0  0  0  0  0  0  0  0
   -2.5170    0.4126   -0.2005 C   0  0  0  0  0  0  0  0  0  0  0  0
   -3.8216   -0.2756    0.1668 C   0  0  0  0  0  0  0  0  0  0  0  0
   -5.0218    0.5963   -0.1661 C   0  0  0  0  0  0  0  0  0  0  0  0
   -6.3204   -0.0862    0.1996 C   0  0  0  0  0  0  0  0  0  0  0  0
  1  2  1  0  0  0  0 
  1  3  1  0  0  0  0 
  2  4  1  0  0  0  0 
  4  5  1  0  0  0  0 
  5  6  1  0  0  0  0 
  6  7  1  0  0  0  0 
  7  8  1  0  0  0  0 
  8  9  1  0  0  0  0 
  9 10  1  0  0  0  0 
 10 11  1  0  0  0  0 
M  END
> <Name>
1-FLUORODECANE

> <Source>
DougDB3DMolFile

> <Tox>
-0.203

> <CAS>
334-56-5

$$$$

  CDK

 13 12  0  0  0  0  0  0  0  0999 V2000
    6.5694   -1.0465    0.4952 F   0  0  0  0  0  0  0  0  0  0  0  0
    6.4617    0.0524   -0.2975 C   0  0  0  0  0  0  0  0  0  0  0  0
    5.1671    0.7794    0.0270 C   0  0  0  0  0  0  0  0  0  0  0  0
    3.9468   -0.1031   -0.2432 C   0  0  0  0  0  0  0  0  0  0  0  0
    2.6157    0.5775    0.0909 C   0  0  0  0  0  0  0  0  0  0  0  0
    1.3553   -0.2488   -0.1828 C   0  0  0  0  0  0  0  0  0  0  0  0
    0.0568    0.5027    0.1169 C   0  0  0  0  0  0  0  0  0  0  0  0
   -1.1677   -0.3719   -0.1667 C   0  0  0  0  0  0  0  0  0  0  0  0
   -2.4656    0.3689    0.1634 C   0  0  0  0  0  0  0  0  0  0  0  0
   -3.7255   -0.4531   -0.1230 C   0  0  0  0  0  0  0  0  0  0  0  0
   -5.0243    0.3132    0.1371 C   0  0  0  0  0  0  0  0  0  0  0  0
   -6.2477   -0.5576   -0.1522 C   0  0  0  0  0  0  0  0  0  0  0  0
   -7.5420    0.1868    0.1351 C   0  0  0  0  0  0  0  0  0  0  0  0
  1  2  1  0  0  0  0 
  3  2  1  0  0  0  0 
  4  3  1  0  0  0  0 
  5  4  1  0  0  0  0 
  6  5  1  0  0  0  0 
  7  6  1  0  0  0  0 
  7  8  1  0  0  0  0 
  8  9  1  0  0  0  0 
  9 10  1  0  0  0  0 
 10 11  1  0  0  0  0 
 11 12  1  0  0  0  0 
 12 13  1  0  0  0  0 
M  END
> <Name>
1-FLUORODODECANE

> <Source>
Chemidplus3DMolFile

> <Tox>
-0.682

> <CAS>
334-68-9

$$$$

  CDK

  7  6  0  0  0  0  0  0  0  0999 V2000
    1.0223    1.1155    0.6234 F   0  0  0  0  0  0  0  0  0  0  0  0
    0.6266   -0.0007   -0.0015 C   0  0  0  0  0  0  0  0  0  0  0  0
    1.0461   -1.0978    0.6416 F   0  0  0  0  0  0  0  0  0  0  0  0
    0.9918   -0.0090   -1.2889 F   0  0  0  0  0  0  0  0  0  0  0  0
   -0.8515   -0.0041    0.0120 N   0  0  0  0  0  0  0  0  0  0  0  0
   -1.4138    1.0980    0.0055 O   0  0  0  0  0  0  0  0  0  0  0  0
   -1.4213   -1.1020    0.0078 O   0  0  0  0  0  0  0  0  0  0  0  0
  1  2  1  0  0  0  0 
  3  2  1  0  0  0  0 
  4  2  1  0  0  0  0 
  5  2  1  0  0  0  0 
  6  5  1  0  0  0  0 
  7  5  2  0  0  0  0 
M  CHG  1   5   1
M  CHG  1   6  -1
M  END
> <Name>
TRIFLUORONITROMETHANE

> <Source>
Chemidplus3DMolFile

> <Tox>
3.848

> <CAS>
335-02-4

$$$$

  CDK

 25 24  0  0  0  0  0  0  0  0999 V2000
    1.1361   -1.3044    0.0000 C   0  0  0  0  0  0  0  0  0  0  0  0
    2.2933   -1.9777    0.0000 C   0  0  0  0  0  0  0  0  0  0  0  0
    0.0000   -1.9777    0.0000 O   0  0  0  0  0  0  0  0  0  0  0  0
    1.1361   -0.0000    0.0000 O   0  0  0  0  0  0  0  0  0  0  0  0
    3.4189   -1.3044    0.0000 C   0  0  0  0  0  0  0  0  0  0  0  0
    2.2933   -3.2716    0.0000 F   0  0  0  0  0  0  0  0  0  0  0  0
    1.1361   -2.6510    0.0000 F   0  0  0  0  0  0  0  0  0  0  0  0
    4.5656   -1.9777    0.0000 C   0  0  0  0  0  0  0  0  0  0  0  0
    3.4189   -0.0000    0.0000 F   0  0  0  0  0  0  0  0  0  0  0  0
    3.4189   -2.6510    0.0000 F   0  0  0  0  0  0  0  0  0  0  0  0
    5.6912   -1.3044    0.0000 C   0  0  0  0  0  0  0  0  0  0  0  0
    4.5656   -3.2716    0.0000 F   0  0  0  0  0  0  0  0  0  0  0  0
    4.5656   -0.6417    0.0000 F   0  0  0  0  0  0  0  0  0  0  0  0
    6.8589   -1.9777    0.0000 C   0  0  0  0  0  0  0  0  0  0  0  0
    5.6912   -0.0000    0.0000 F   0  0  0  0  0  0  0  0  0  0  0  0
    5.6912   -2.6510    0.0000 F   0  0  0  0  0  0  0  0  0  0  0  0
    7.9845   -1.3044    0.0000 C   0  0  0  0  0  0  0  0  0  0  0  0
    6.8589   -3.2716    0.0000 F   0  0  0  0  0  0  0  0  0  0  0  0
    6.8589   -0.6417    0.0000 F   0  0  0  0  0  0  0  0  0  0  0  0
    9.1311   -1.9777    0.0000 C   0  0  0  0  0  0  0  0  0  0  0  0
    7.9845   -0.0000    0.0000 F   0  0  0  0  0  0  0  0  0  0  0  0
    7.9845   -2.6510    0.0000 F   0  0  0  0  0  0  0  0  0  0  0  0
    9.1311   -3.2716    0.0000 F   0  0  0  0  0  0  0  0  0  0  0  0
    9.1311   -0.6417    0.0000 F   0  0  0  0  0  0  0  0  0  0  0  0
   10.5197   -1.3150    0.0000 F   0  0  0  0  0  0  0  0  0  0  0  0
  1  2  1  0  0  0  0 
  1  3  1  0  0  0  0 
  1  4  2  0  0  0  0 
  2  5  1  0  0  0  0 
  2  6  1  0  0  0  0 
  2  7  1  0  0  0  0 
  5  8  1  0  0  0  0 
  5  9  1  0  0  0  0 
  5 10  1  0  0  0  0 
  8 11  1  0  0  0  0 
  8 12  1  0  0  0  0 
  8 13  1  0  0  0  0 
 11 14  1  0  0  0  0 
 11 15  1  0  0  0  0 
 11 16  1  0  0  0  0 
 14 17  1  0  0  0  0 
 14 18  1  0  0  0  0 
 14 19  1  0  0  0  0 
 17 20  1  0  0  0  0 
 17 21  1  0  0  0  0 
 17 22  1  0  0  0  0 
 20 23  1  0  0  0  0 
 20 24  1  0  0  0  0 
 20 25  1  0  0  0  0 
M  END
> <Name>
Perfluorooctanoic Acid

> <Source>
DSSTox2DMolFile

> <Tox>
-0.280

> <CAS>
335-67-1

$$$$

  CDK

 12 12  0  0  0  0  0  0  0  0999 V2000
    1.4484    2.5972    0.0000 C   0  0  0  0  0  0  0  0  0  0  0  0
    0.9490    1.7481    0.0000 C   0  0  0  0  0  0  0  0  0  0  0  0
    2.4474    2.5972    0.0000 C   0  0  0  0  0  0  0  0  0  0  0  0
    0.9490    3.4963    0.0000 F   0  0  0  0  0  0  0  0  0  0  0  0
    1.4484    0.8990    0.0000 C   0  0  0  0  0  0  0  0  0  0  0  0
    0.0000    1.7481    0.0000 F   0  0  0  0  0  0  0  0  0  0  0  0
    2.9468    3.4963    0.0000 F   0  0  0  0  0  0  0  0  0  0  0  0
    2.9468    1.7481    0.0000 C   0  0  0  0  0  0  0  0  0  0  0  0
    2.4474    0.8990    0.0000 C   0  0  0  0  0  0  0  0  0  0  0  0
    0.9490    0.0000    0.0000 F   0  0  0  0  0  0  0  0  0  0  0  0
    3.9458    1.7481    0.0000 F   0  0  0  0  0  0  0  0  0  0  0  0
    2.9468    0.0000    0.0000 Br  0  0  0  0  0  0  0  0  0  0  0  0
  1  2  2  0  0  0  0 
  3  1  1  0  0  0  0 
  1  4  1  0  0  0  0 
  2  5  1  0  0  0  0 
  2  6  1  0  0  0  0 
  3  7  1  0  0  0  0 
  8  3  2  0  0  0  0 
  5  9  2  0  0  0  0 
  5 10  1  0  0  0  0 
  9  8  1  0  0  0  0 
  8 11  1  0  0  0  0 
  9 12  1  0  0  0  0 
M  END
> <Name>
BROMOPENTAFLUOROBENZENE

> <Source>
NIST2DMolFile

> <Tox>
0.903

> <CAS>
344-04-7

$$$$

  CDK

 12 12  0  0  0  0  0  0  0  0999 V2000
    1.4484    2.5972    0.0000 C   0  0  0  0  0  0  0  0  0  0  0  0
    0.9490    1.7481    0.0000 C   0  0  0  0  0  0  0  0  0  0  0  0
    2.4474    2.5972    0.0000 C   0  0  0  0  0  0  0  0  0  0  0  0
    0.9490    3.4963    0.0000 F   0  0  0  0  0  0  0  0  0  0  0  0
    1.4484    0.8990    0.0000 C   0  0  0  0  0  0  0  0  0  0  0  0
    0.0000    1.7481    0.0000 F   0  0  0  0  0  0  0  0  0  0  0  0
    2.9468    3.4963    0.0000 F   0  0  0  0  0  0  0  0  0  0  0  0
    2.9468    1.7481    0.0000 C   0  0  0  0  0  0  0  0  0  0  0  0
    2.4474    0.8990    0.0000 C   0  0  0  0  0  0  0  0  0  0  0  0
    0.9490    0.0000    0.0000 F   0  0  0  0  0  0  0  0  0  0  0  0
    3.9458    1.7481    0.0000 F   0  0  0  0  0  0  0  0  0  0  0  0
    2.9468    0.0000    0.0000 Cl  0  0  0  0  0  0  0  0  0  0  0  0
  1  2  2  0  0  0  0 
  3  1  1  0  0  0  0 
  1  4  1  0  0  0  0 
  2  5  1  0  0  0  0 
  2  6  1  0  0  0  0 
  3  7  1  0  0  0  0 
  8  3  2  0  0  0  0 
  5  9  2  0  0  0  0 
  5 10  1  0  0  0  0 
  9  8  1  0  0  0  0 
  8 11  1  0  0  0  0 
  9 12  1  0  0  0  0 
M  END
> <Name>
CHLOROPENTAFLUOROBENZENE

> <Source>
NIST2DMolFile

> <Tox>
1.250

> <CAS>
344-07-0

$$$$

  CDK

  8  8  0  0  0  0  0  0  0  0999 V2000
    0.0000    0.0000    0.0000 F   0  0  0  0  0  0  0  0  0  0  0  0
    0.5044    0.8574    0.0000 C   0  0  0  0  0  0  0  0  0  0  0  0
    1.5131    0.8574    0.0000 C   0  0  0  0  0  0  0  0  0  0  0  0
    2.0175    1.7148    0.0000 C   0  0  0  0  0  0  0  0  0  0  0  0
    2.0175    0.0000    0.0000 C   0  0  0  0  0  0  0  0  0  0  0  0
    3.0262    1.7148    0.0000 C   0  0  0  0  0  0  0  0  0  0  0  0
    3.0262    0.0000    0.0000 C   0  0  0  0  0  0  0  0  0  0  0  0
    3.5306    0.8574    0.0000 C   0  0  0  0  0  0  0  0  0  0  0  0
  1  2  1  0  0  0  0 
  2  3  1  0  0  0  0 
  4  3  2  0  0  0  0 
  3  5  1  0  0  0  0 
  6  4  1  0  0  0  0 
  5  7  2  0  0  0  0 
  8  6  2  0  0  0  0 
  7  8  1  0  0  0  0 
M  END
> <Name>
BENZYL FLUORIDE

> <Source>
NIST2DMolFile

> <Tox>
0.832

> <CAS>
350-50-5

$$$$

  CDK

  8  8  0  0  0  0  0  0  0  0999 V2000
    4.0279    0.8559    0.0000 C   0  0  0  0  0  0  0  0  0  0  0  0
    3.0209    0.8559    0.0000 C   0  0  0  0  0  0  0  0  0  0  0  0
    2.5174    1.7119    0.0000 C   0  0  0  0  0  0  0  0  0  0  0  0
    2.5174    0.0000    0.0000 C   0  0  0  0  0  0  0  0  0  0  0  0
    1.5105    1.7119    0.0000 C   0  0  0  0  0  0  0  0  0  0  0  0
    1.5105    0.0000    0.0000 C   0  0  0  0  0  0  0  0  0  0  0  0
    1.0070    0.8559    0.0000 C   0  0  0  0  0  0  0  0  0  0  0  0
    0.0000    0.8559    0.0000 F   0  0  0  0  0  0  0  0  0  0  0  0
  1  2  1  0  0  0  0 
  2  3  2  0  0  0  0 
  4  2  1  0  0  0  0 
  3  5  1  0  0  0  0 
  6  4  2  0  0  0  0 
  5  7  2  0  0  0  0 
  7  6  1  0  0  0  0 
  7  8  1  0  0  0  0 
M  END
> <Name>
P-FLUOROTOLUENE

> <Source>
NIST2DMolFile

> <Tox>
1.322

> <CAS>
352-32-9

$$$$

  CDK

  5  4  0  0  0  0  0  0  0  0999 V2000
    3.4783   -0.7085    0.0000 C   0  0  0  0  0  0  0  0  0  0  0  0
    4.6009   -0.0000    0.0000 C   0  0  0  0  0  0  0  0  0  0  0  0
    2.2912   -0.0828    0.0000 S   0  0  0  0  0  0  0  0  0  0  0  0
    1.1686   -0.7867    0.0000 C   0  0  0  0  0  0  0  0  0  0  0  0
    0.0000   -0.1610    0.0000 C   0  0  0  0  0  0  0  0  0  0  0  0
  1  2  1  0  0  0  0 
  1  3  1  0  0  0  0 
  4  3  1  0  0  0  0 
  4  5  1  0  0  0  0 
M  END
> <Name>
DIETHYLSULFIDE

> <Source>
DSSTox2DMolFile

> <Tox>
1.780

> <CAS>
352-93-2

$$$$

  CDK

  4  3  0  0  0  0  0  0  0  0999 V2000
    0.8456    0.9948    0.0000 C   0  0  0  0  0  0  0  0  0  0  0  0
    0.0000    1.4922    0.0000 F   0  0  0  0  0  0  0  0  0  0  0  0
    1.7409    1.4922    0.0000 F   0  0  0  0  0  0  0  0  0  0  0  0
    0.8456    0.0000    0.0000 O   0  0  0  0  0  0  0  0  0  0  0  0
  1  2  1  0  0  0  0 
  1  3  1  0  0  0  0 
  1  4  2  0  0  0  0 
M  END
> <Name>
CARBONIC DIFLUORIDE

> <Source>
NIST2DMolFile

> <Tox>
4.648

> <CAS>
353-50-4

$$$$

  CDK

  5  4  0  0  0  0  0  0  0  0999 V2000
    1.3300   -1.3300    0.0000 C   0  0  0  0  0  0  0  0  0  0  0  0
    1.3300   -0.0000    0.0000 Br  0  0  0  0  0  0  0  0  0  0  0  0
    1.3300   -2.6600    0.0000 Cl  0  0  0  0  0  0  0  0  0  0  0  0
    2.6600   -1.3300    0.0000 F   0  0  0  0  0  0  0  0  0  0  0  0
    0.0000   -1.3300    0.0000 F   0  0  0  0  0  0  0  0  0  0  0  0
  1  2  1  0  0  0  0 
  1  3  1  0  0  0  0 
  1  4  1  0  0  0  0 
  1  5  1  0  0  0  0 
M  END
> <Name>
BROMOCHLORODIFLUOROMETHANE

> <Source>
DSSTox2DMolFile

> <Tox>
3.316

> <CAS>
353-59-3

$$$$

  CDK

  7  6  0  0  0  0  0  0  0  0999 V2000
    2.0360    0.9932    0.0000 C   0  0  0  0  0  0  0  0  0  0  0  0
    0.9932    0.9932    0.0000 C   0  0  0  0  0  0  0  0  0  0  0  0
    2.5326    1.8870    0.0000 Cl  0  0  0  0  0  0  0  0  0  0  0  0
    2.4829    0.1490    0.0000 F   0  0  0  0  0  0  0  0  0  0  0  0
    0.9932    1.9863    0.0000 Cl  0  0  0  0  0  0  0  0  0  0  0  0
    0.9932    0.0000    0.0000 F   0  0  0  0  0  0  0  0  0  0  0  0
    0.0000    0.9932    0.0000 F   0  0  0  0  0  0  0  0  0  0  0  0
  1  2  1  0  0  0  0 
  1  3  1  0  0  0  0 
  1  4  1  0  0  0  0 
  2  5  1  0  0  0  0 
  2  6  1  0  0  0  0 
  2  7  1  0  0  0  0 
M  END
> <Name>
Ethane, 1,2-dichloro-1,1,2-trifluoro-

> <Source>
NIST2DMolFile

> <Tox>
2.792

> <CAS>
354-23-4

$$$$

  CDK

 11 10  0  0  0  0  0  0  0  0999 V2000
   -1.7828   -0.3798    0.0000 F   0  0  0  0  0  0  0  0  0  0  0  0
   -0.9820   -0.1816    0.0000 C   0  0  0  0  0  0  0  0  0  0  0  0
   -1.1802    0.6192    0.0000 F   0  0  0  0  0  0  0  0  0  0  0  0
   -0.7838   -0.9825    0.0000 F   0  0  0  0  0  0  0  0  0  0  0  0
   -0.1811    0.0165    0.0000 C   0  0  0  0  0  0  0  0  0  0  0  0
   -0.3793    0.8174    0.0000 F   0  0  0  0  0  0  0  0  0  0  0  0
    0.0170   -0.7843    0.0000 F   0  0  0  0  0  0  0  0  0  0  0  0
    0.6197    0.2147    0.0000 S   0  0  0  0  0  0  0  0  0  0  0  0
    0.4215    1.0155    0.0000 O   0  0  0  0  0  0  0  0  0  0  0  0
    0.8179   -0.5862    0.0000 O   0  0  0  0  0  0  0  0  0  0  0  0
    1.4206    0.4128    0.0000 O   0  0  0  0  0  0  0  0  0  0  0  0
  1  2  1  0  0  0  0 
  2  3  1  0  0  0  0 
  2  4  1  0  0  0  0 
  2  5  1  0  0  0  0 
  5  6  1  0  0  0  0 
  5  7  1  0  0  0  0 
  5  8  1  0  0  0  0 
  8  9  2  0  0  0  0 
  8 10  2  0  0  0  0 
  8 11  1  0  0  0  0 
M  END
> <Name>
Perfluoroethanesulfonic Acid

> <Source>
Smiles

> <Tox>
-0.051

> <CAS>
354-88-1

$$$$

  CDK

 14 13  0  0  0  0  0  0  0  0999 V2000
    2.6276    1.8696    0.0000 C   0  0  0  0  0  0  0  0  0  0  0  0
    1.7181    1.3643    0.0000 C   0  0  0  0  0  0  0  0  0  0  0  0
    3.4866    2.3750    0.0000 C   0  0  0  0  0  0  0  0  0  0  0  0
    2.1223    2.7287    0.0000 F   0  0  0  0  0  0  0  0  0  0  0  0
    3.1329    1.0106    0.0000 F   0  0  0  0  0  0  0  0  0  0  0  0
    0.8590    0.8590    0.0000 C   0  0  0  0  0  0  0  0  0  0  0  0
    2.2234    0.5053    0.0000 F   0  0  0  0  0  0  0  0  0  0  0  0
    1.2127    2.2234    0.0000 F   0  0  0  0  0  0  0  0  0  0  0  0
    3.9919    1.5159    0.0000 F   0  0  0  0  0  0  0  0  0  0  0  0
    2.9813    3.2340    0.0000 F   0  0  0  0  0  0  0  0  0  0  0  0
    4.3457    2.8803    0.0000 F   0  0  0  0  0  0  0  0  0  0  0  0
    0.3537    1.7181    0.0000 F   0  0  0  0  0  0  0  0  0  0  0  0
    1.3643    0.0000    0.0000 F   0  0  0  0  0  0  0  0  0  0  0  0
    0.0000    0.3537    0.0000 F   0  0  0  0  0  0  0  0  0  0  0  0
  1  2  1  0  0  0  0 
  1  3  1  0  0  0  0 
  1  4  1  0  0  0  0 
  1  5  1  0  0  0  0 
  2  6  1  0  0  0  0 
  2  7  1  0  0  0  0 
  2  8  1  0  0  0  0 
  3  9  1  0  0  0  0 
  3 10  1  0  0  0  0 
  3 11  1  0  0  0  0 
  6 12  1  0  0  0  0 
  6 13  1  0  0  0  0 
  6 14  1  0  0  0  0 
M  END
> <Name>
DECAFLUOROBUTANE

> <Source>
NIST2DMolFile

> <Tox>
3.303

> <CAS>
355-25-9

$$$$

  CDK

 20 19  0  0  0  0  0  0  0  0999 V2000
    3.5246    2.3665    0.0000 C   0  0  0  0  0  0  0  0  0  0  0  0
    2.6183    1.8630    0.0000 C   0  0  0  0  0  0  0  0  0  0  0  0
    4.3806    2.8701    0.0000 C   0  0  0  0  0  0  0  0  0  0  0  0
    3.0211    3.2225    0.0000 F   0  0  0  0  0  0  0  0  0  0  0  0
    4.0282    1.5106    0.0000 F   0  0  0  0  0  0  0  0  0  0  0  0
    1.7623    1.3595    0.0000 C   0  0  0  0  0  0  0  0  0  0  0  0
    3.1218    1.0070    0.0000 F   0  0  0  0  0  0  0  0  0  0  0  0
    2.1148    2.7190    0.0000 F   0  0  0  0  0  0  0  0  0  0  0  0
    5.2366    3.3736    0.0000 C   0  0  0  0  0  0  0  0  0  0  0  0
    3.8771    3.7261    0.0000 F   0  0  0  0  0  0  0  0  0  0  0  0
    4.8841    2.0141    0.0000 F   0  0  0  0  0  0  0  0  0  0  0  0
    0.9063    0.8560    0.0000 C   0  0  0  0  0  0  0  0  0  0  0  0
    2.2658    0.5035    0.0000 F   0  0  0  0  0  0  0  0  0  0  0  0
    1.2588    2.2155    0.0000 F   0  0  0  0  0  0  0  0  0  0  0  0
    5.7401    2.5176    0.0000 F   0  0  0  0  0  0  0  0  0  0  0  0
    4.7331    4.2296    0.0000 F   0  0  0  0  0  0  0  0  0  0  0  0
    6.1430    3.8771    0.0000 F   0  0  0  0  0  0  0  0  0  0  0  0
    0.4028    1.7120    0.0000 F   0  0  0  0  0  0  0  0  0  0  0  0
    1.4099    0.0000    0.0000 F   0  0  0  0  0  0  0  0  0  0  0  0
    0.0000    0.3525    0.0000 F   0  0  0  0  0  0  0  0  0  0  0  0
  1  2  1  0  0  0  0 
  1  3  1  0  0  0  0 
  1  4  1  0  0  0  0 
  1  5  1  0  0  0  0 
  2  6  1  0  0  0  0 
  2  7  1  0  0  0  0 
  2  8  1  0  0  0  0 
  3  9  1  0  0  0  0 
  3 10  1  0  0  0  0 
  3 11  1  0  0  0  0 
  6 12  1  0  0  0  0 
  6 13  1  0  0  0  0 
  6 14  1  0  0  0  0 
  9 15  1  0  0  0  0 
  9 16  1  0  0  0  0 
  9 17  1  0  0  0  0 
 12 18  1  0  0  0  0 
 12 19  1  0  0  0  0 
 12 20  1  0  0  0  0 
M  END
> <Name>
PERFLUORO-N-HEXANE

> <Source>
NIST2DMolFile

> <Tox>
2.338

> <CAS>
355-42-0

$$$$

  CDK

 18 18  0  0  0  0  0  0  0  0999 V2000
    1.4693    0.4589   -1.5819 F   0  0  0  0  0  0  0  0  0  0  0  0
    1.3841    0.4324   -0.2270 C   0  0  0  0  0  0  0  0  0  0  0  0
    2.5940    0.8104    0.2478 F   0  0  0  0  0  0  0  0  0  0  0  0
    1.0665   -0.9824    0.2270 C   0  0  0  0  0  0  0  0  0  0  0  0
    0.3176    1.4149    0.2270 C   0  0  0  0  0  0  0  0  0  0  0  0
    1.9988   -1.8413   -0.2477 F   0  0  0  0  0  0  0  0  0  0  0  0
    1.1321   -1.0429    1.5819 F   0  0  0  0  0  0  0  0  0  0  0  0
   -0.3175   -1.4148   -0.2270 C   0  0  0  0  0  0  0  0  0  0  0  0
    0.5951    2.6516   -0.2481 F   0  0  0  0  0  0  0  0  0  0  0  0
    0.3373    1.5022    1.5818 F   0  0  0  0  0  0  0  0  0  0  0  0
   -1.0664    0.9824   -0.2269 C   0  0  0  0  0  0  0  0  0  0  0  0
   -0.5951   -2.6516    0.2479 F   0  0  0  0  0  0  0  0  0  0  0  0
   -0.3371   -1.5020   -1.5818 F   0  0  0  0  0  0  0  0  0  0  0  0
   -1.3841   -0.4325    0.2269 C   0  0  0  0  0  0  0  0  0  0  0  0
   -1.1323    1.0429   -1.5818 F   0  0  0  0  0  0  0  0  0  0  0  0
   -1.9988    1.8412    0.2481 F   0  0  0  0  0  0  0  0  0  0  0  0
   -1.4696   -0.4592    1.5818 F   0  0  0  0  0  0  0  0  0  0  0  0
   -2.5939   -0.8104   -0.2481 F   0  0  0  0  0  0  0  0  0  0  0  0
  1  2  1  0  0  0  0 
  3  2  1  0  0  0  0 
  2  4  1  0  0  0  0 
  2  5  1  0  0  0  0 
  6  4  1  0  0  0  0 
  7  4  1  0  0  0  0 
  4  8  1  0  0  0  0 
  9  5  1  0  0  0  0 
 10  5  1  0  0  0  0 
  5 11  1  0  0  0  0 
 12  8  1  0  0  0  0 
 13  8  1  0  0  0  0 
  8 14  1  0  0  0  0 
 15 11  1  0  0  0  0 
 16 11  1  0  0  0  0 
 11 14  1  0  0  0  0 
 17 14  1  0  0  0  0 
 18 14  1  0  0  0  0 
M  END
> <Name>
PERFLUOROCYCLOHEXANE

> <Source>
Chemidplus3DMolFile

> <Tox>
2.233

> <CAS>
355-68-0

$$$$

  CDK

  8  7  0  0  0  0  0  0  0  0999 V2000
    2.4253    3.4981    0.0000 F   0  0  0  0  0  0  0  0  0  0  0  0
    2.4253    2.0988    0.0000 Si  0  0  0  0  0  0  0  0  0  0  0  0
    1.2127    1.3992    0.0000 C   0  0  0  0  0  0  0  0  0  0  0  0
    3.6380    1.3992    0.0000 C   0  0  0  0  0  0  0  0  0  0  0  0
    2.4253    0.6996    0.0000 C   0  0  0  0  0  0  0  0  0  0  0  0
    0.0000    2.0988    0.0000 C   0  0  0  0  0  0  0  0  0  0  0  0
    4.8506    2.0988    0.0000 C   0  0  0  0  0  0  0  0  0  0  0  0
    1.2127    0.0000    0.0000 C   0  0  0  0  0  0  0  0  0  0  0  0
  1  2  1  0  0  0  0 
  2  3  1  0  0  0  0 
  2  4  1  0  0  0  0 
  2  5  1  0  0  0  0 
  3  6  1  0  0  0  0 
  4  7  1  0  0  0  0 
  5  8  1  0  0  0  0 
M  END
> <Name>
TRIETHYLFLUOROSILANE

> <Source>
IndexNet2DMolFile

> <Tox>
1.566

> <CAS>
358-43-0

$$$$

  CDK

  5  4  0  0  0  0  0  0  0  0999 V2000
    1.5785    0.8879    0.0000 C   0  0  0  0  0  0  0  0  0  0  0  0
    0.5426    0.8879    0.0000 C   0  0  0  0  0  0  0  0  0  0  0  0
    2.0225    0.0000    0.0000 Cl  0  0  0  0  0  0  0  0  0  0  0  0
    0.0000    0.0000    0.0000 F   0  0  0  0  0  0  0  0  0  0  0  0
    0.0493    1.6772    0.0000 F   0  0  0  0  0  0  0  0  0  0  0  0
  1  2  2  0  0  0  0 
  1  3  1  0  0  0  0 
  2  4  1  0  0  0  0 
  2  5  1  0  0  0  0 
M  END
> <Name>
CHLORO-1,1-DIFLUOROETHYLENE

> <Source>
NIST2DMolFile

> <Tox>
3.550

> <CAS>
359-10-4

$$$$

  CDK

 12 11  0  0  0  0  0  0  0  0999 V2000
    1.0682    1.8312    0.0000 C   0  0  0  0  0  0  0  0  0  0  0  0
    1.0682    2.8486    0.0000 F   0  0  0  0  0  0  0  0  0  0  0  0
    0.0000    1.8312    0.0000 F   0  0  0  0  0  0  0  0  0  0  0  0
    1.0682    0.8647    0.0000 F   0  0  0  0  0  0  0  0  0  0  0  0
    2.0856    1.8312    0.0000 C   0  0  0  0  0  0  0  0  0  0  0  0
    2.5434    2.7468    0.0000 F   0  0  0  0  0  0  0  0  0  0  0  0
    2.4925    1.0173    0.0000 C   0  0  0  0  0  0  0  0  0  0  0  0
    2.0347    0.1526    0.0000 F   0  0  0  0  0  0  0  0  0  0  0  0
    3.5099    1.0173    0.0000 C   0  0  0  0  0  0  0  0  0  0  0  0
    3.5099    1.9838    0.0000 F   0  0  0  0  0  0  0  0  0  0  0  0
    3.5099    0.0000    0.0000 F   0  0  0  0  0  0  0  0  0  0  0  0
    4.5272    1.0173    0.0000 F   0  0  0  0  0  0  0  0  0  0  0  0
  1  2  1  0  0  0  0 
  1  3  1  0  0  0  0 
  1  4  1  0  0  0  0 
  1  5  1  0  0  0  0 
  5  6  1  0  0  0  0 
  5  7  2  0  0  0  0 
  7  8  1  0  0  0  0 
  7  9  1  0  0  0  0 
  9 10  1  0  0  0  0 
  9 11  1  0  0  0  0 
  9 12  1  0  0  0  0 
M  END
> <Name>
OCTAFLUORO-2-BUTENE

> <Source>
NIST2DMolFile

> <Tox>
3.301

> <CAS>
360-89-4

$$$$

  CDK

 11 11  0  0  0  0  0  0  0  0999 V2000
   -1.2044    1.0019    0.0000 C   0  0  0  0  0  0  0  0  0  0  0  0
   -1.2171   -0.4087    0.0000 C   0  0  0  0  0  0  0  0  0  0  0  0
    0.0002    1.7130    0.0000 C   0  0  0  0  0  0  0  0  0  0  0  0
   -2.3691    1.6600    0.0000 F   0  0  0  0  0  0  0  0  0  0  0  0
   -0.0001   -1.1165    0.0000 C   0  0  0  0  0  0  0  0  0  0  0  0
   -2.3762   -1.0721    0.0000 F   0  0  0  0  0  0  0  0  0  0  0  0
    1.2047    1.0017    0.0000 C   0  0  0  0  0  0  0  0  0  0  0  0
    1.2170   -0.4088    0.0000 C   0  0  0  0  0  0  0  0  0  0  0  0
   -0.0002   -2.4510    0.0000 F   0  0  0  0  0  0  0  0  0  0  0  0
    2.3695    1.6599    0.0000 F   0  0  0  0  0  0  0  0  0  0  0  0
    2.3758   -1.0728    0.0000 F   0  0  0  0  0  0  0  0  0  0  0  0
  1  2  1  0  0  0  0 
  1  3  2  0  0  0  0 
  1  4  1  0  0  0  0 
  2  5  2  0  0  0  0 
  2  6  1  0  0  0  0 
  7  3  1  0  0  0  0 
  5  8  1  0  0  0  0 
  5  9  1  0  0  0  0 
  8  7  2  0  0  0  0 
  7 10  1  0  0  0  0 
  8 11  1  0  0  0  0 
M  END
> <Name>
PENTAFLUOROBENZENE

> <Source>
DougDB3DMolFile

> <Tox>
1.830

> <CAS>
363-72-4

$$$$

  CDK

  8  8  0  0  0  0  0  0  0  0999 V2000
    0.0000    0.8701    0.0000 C   0  0  0  0  0  0  0  0  0  0  0  0
    0.5118    1.6889    0.0000 C   0  0  0  0  0  0  0  0  0  0  0  0
    0.5118    0.0000    0.0000 C   0  0  0  0  0  0  0  0  0  0  0  0
    1.5354    1.7401    0.0000 C   0  0  0  0  0  0  0  0  0  0  0  0
    1.5354    0.0000    0.0000 C   0  0  0  0  0  0  0  0  0  0  0  0
    2.0472    0.9212    0.0000 C   0  0  0  0  0  0  0  0  0  0  0  0
    1.9960    2.6102    0.0000 F   0  0  0  0  0  0  0  0  0  0  0  0
    3.0196    0.9212    0.0000 F   0  0  0  0  0  0  0  0  0  0  0  0
  1  2  2  0  0  0  0 
  3  1  1  0  0  0  0 
  2  4  1  0  0  0  0 
  5  3  2  0  0  0  0 
  4  6  2  0  0  0  0 
  4  7  1  0  0  0  0 
  6  5  1  0  0  0  0 
  6  8  1  0  0  0  0 
M  END
> <Name>
1,2-DIFLUOROBENZENE

> <Source>
NIST2DMolFile

> <Tox>
1.728

> <CAS>
367-11-3

$$$$

  CDK

  8  8  0  0  0  0  0  0  0  0999 V2000
    0.0000    1.7462    0.0000 F   0  0  0  0  0  0  0  0  0  0  0  0
    0.9978    1.7462    0.0000 C   0  0  0  0  0  0  0  0  0  0  0  0
    1.4967    0.8481    0.0000 C   0  0  0  0  0  0  0  0  0  0  0  0
    1.4967    2.5943    0.0000 C   0  0  0  0  0  0  0  0  0  0  0  0
    2.4945    0.8481    0.0000 C   0  0  0  0  0  0  0  0  0  0  0  0
    2.4945    2.5943    0.0000 C   0  0  0  0  0  0  0  0  0  0  0  0
    2.9934    0.0000    0.0000 F   0  0  0  0  0  0  0  0  0  0  0  0
    2.9934    1.7462    0.0000 C   0  0  0  0  0  0  0  0  0  0  0  0
  1  2  1  0  0  0  0 
  2  3  2  0  0  0  0 
  4  2  1  0  0  0  0 
  3  5  1  0  0  0  0 
  6  4  2  0  0  0  0 
  5  7  1  0  0  0  0 
  5  8  2  0  0  0  0 
  8  6  1  0  0  0  0 
M  END
> <Name>
M-DIFLUOROBENZENE

> <Source>
NIST2DMolFile

> <Tox>
1.918

> <CAS>
372-18-9

$$$$

  CDK

  9  9  0  0  0  0  0  0  0  0999 V2000
    2.6026    0.5103    0.0000 C   0  0  0  0  0  0  0  0  0  0  0  0
    2.6026    1.4799    0.0000 C   0  0  0  0  0  0  0  0  0  0  0  0
    1.7861    0.0000    0.0000 C   0  0  0  0  0  0  0  0  0  0  0  0
    3.4701    0.0000    0.0000 F   0  0  0  0  0  0  0  0  0  0  0  0
    1.7861    1.9902    0.0000 C   0  0  0  0  0  0  0  0  0  0  0  0
    0.8675    0.5103    0.0000 C   0  0  0  0  0  0  0  0  0  0  0  0
    0.8675    1.4799    0.0000 C   0  0  0  0  0  0  0  0  0  0  0  0
    1.7861    3.0108    0.0000 F   0  0  0  0  0  0  0  0  0  0  0  0
    0.0000    0.0000    0.0000 F   0  0  0  0  0  0  0  0  0  0  0  0
  2  1  2  0  0  0  0 
  1  3  1  0  0  0  0 
  1  4  1  0  0  0  0 
  5  2  1  0  0  0  0 
  3  6  2  0  0  0  0 
  7  5  2  0  0  0  0 
  5  8  1  0  0  0  0 
  6  7  1  0  0  0  0 
  6  9  1  0  0  0  0 
M  END
> <Name>
1,3,5-TRIFLUOROBENZENE

> <Source>
NIST2DMolFile

> <Tox>
2.017

> <CAS>
372-38-3

$$$$

  CDK

  7  6  0  0  0  0  0  0  0  0999 V2000
    3.4478    0.4997    0.0000 C   0  0  0  0  0  0  0  0  0  0  0  0
    2.5984    0.0000    0.0000 C   0  0  0  0  0  0  0  0  0  0  0  0
    4.3473    0.0000    0.0000 C   0  0  0  0  0  0  0  0  0  0  0  0
    1.7489    0.4997    0.0000 C   0  0  0  0  0  0  0  0  0  0  0  0
    5.1968    0.4997    0.0000 C   0  0  0  0  0  0  0  0  0  0  0  0
    0.8495    0.0000    0.0000 C   0  0  0  0  0  0  0  0  0  0  0  0
    0.0000    0.4997    0.0000 F   0  0  0  0  0  0  0  0  0  0  0  0
  1  2  1  0  0  0  0 
  1  3  1  0  0  0  0 
  2  4  1  0  0  0  0 
  3  5  1  0  0  0  0 
  4  6  1  0  0  0  0 
  6  7  1  0  0  0  0 
M  END
> <Name>
1-FLUOROHEXANE

> <Source>
NIST2DMolFile

> <Tox>
1.762

> <CAS>
373-14-8

$$$$

  CDK

  7  6  0  0  0  0  0  0  0  0999 V2000
    0.0000    0.8643    0.0000 C   0  0  0  0  0  0  0  0  0  0  0  0
    0.9152    1.3728    0.0000 C   0  0  0  0  0  0  0  0  0  0  0  0
    0.9152    2.3388    0.0000 O   0  0  0  0  0  0  0  0  0  0  0  0
    1.7287    0.8643    0.0000 C   0  0  0  0  0  0  0  0  0  0  0  0
    2.2371    1.7287    0.0000 F   0  0  0  0  0  0  0  0  0  0  0  0
    2.6439    0.3559    0.0000 F   0  0  0  0  0  0  0  0  0  0  0  0
    1.2711    0.0000    0.0000 F   0  0  0  0  0  0  0  0  0  0  0  0
  1  2  1  0  0  0  0 
  2  3  1  0  0  0  0 
  2  4  1  0  0  0  0 
  4  5  1  0  0  0  0 
  4  6  1  0  0  0  0 
  4  7  1  0  0  0  0 
M  END
> <Name>
1,1,1-TRIFLUORO-2-PROPANOL

> <Source>
NIST2DMolFile

> <Tox>
1.785

> <CAS>
374-01-6

$$$$

  CDK

  8  7  0  0  0  0  0  0  0  0999 V2000
    1.3283   -1.3323    0.0000 C   0  0  0  0  0  0  0  0  0  0  0  0
    2.6605   -1.3323    0.0000 C   0  0  0  0  0  0  0  0  0  0  0  0
    1.3283   -0.0000    0.0000 Cl  0  0  0  0  0  0  0  0  0  0  0  0
    0.0000   -1.3323    0.0000 Cl  0  0  0  0  0  0  0  0  0  0  0  0
    1.3123   -2.6605    0.0000 F   0  0  0  0  0  0  0  0  0  0  0  0
    2.6446   -2.6605    0.0000 F   0  0  0  0  0  0  0  0  0  0  0  0
    2.6605   -0.0000    0.0000 F   0  0  0  0  0  0  0  0  0  0  0  0
    3.9888   -1.3323    0.0000 F   0  0  0  0  0  0  0  0  0  0  0  0
  1  2  1  0  0  0  0 
  1  3  1  0  0  0  0 
  1  4  1  0  0  0  0 
  1  5  1  0  0  0  0 
  2  6  1  0  0  0  0 
  2  7  1  0  0  0  0 
  2  8  1  0  0  0  0 
M  END
> <Name>
1,1-DICHLORO-1,2,2,2-TETRAFLUOROETHANE

> <Source>
DSSTox2DMolFile

> <Tox>
3.215

> <CAS>
374-07-2

$$$$

  CDK

 12 11  0  0  0  0  0  0  0  0999 V2000
    0.9733    1.9467    0.0000 C   0  0  0  0  0  0  0  0  0  0  0  0
    2.3565    1.9467    0.0000 C   0  0  0  0  0  0  0  0  0  0  0  0
    0.9733    2.9200    0.0000 F   0  0  0  0  0  0  0  0  0  0  0  0
    0.0000    1.9467    0.0000 F   0  0  0  0  0  0  0  0  0  0  0  0
    0.9733    1.0246    0.0000 F   0  0  0  0  0  0  0  0  0  0  0  0
    2.3565    1.0246    0.0000 C   0  0  0  0  0  0  0  0  0  0  0  0
    2.3565    2.9713    0.0000 F   0  0  0  0  0  0  0  0  0  0  0  0
    3.3811    1.9467    0.0000 F   0  0  0  0  0  0  0  0  0  0  0  0
    3.3811    1.0246    0.0000 C   0  0  0  0  0  0  0  0  0  0  0  0
    1.6393    1.0246    0.0000 F   0  0  0  0  0  0  0  0  0  0  0  0
    2.3565    0.0000    0.0000 F   0  0  0  0  0  0  0  0  0  0  0  0
    3.8934    0.1537    0.0000 O   0  0  0  0  0  0  0  0  0  0  0  0
  1  2  1  0  0  0  0 
  1  3  1  0  0  0  0 
  1  4  1  0  0  0  0 
  1  5  1  0  0  0  0 
  2  6  1  0  0  0  0 
  2  7  1  0  0  0  0 
  2  8  1  0  0  0  0 
  6  9  1  0  0  0  0 
  6 10  1  0  0  0  0 
  6 11  1  0  0  0  0 
  9 12  1  0  0  0  0 
M  END
> <Name>
2,2,3,3,4,4,-HEPTAFLUOROBUTANOL

> <Source>
NIST2DMolFile

> <Tox>
1.520

> <CAS>
375-01-9

$$$$

  CDK

 22 21  0  0  0  0  0  0  0  0999 V2000
    6.9401  -11.9524    0.0000 C   0  0  0  0  0  0  0  0  0  0  0  0
    7.9425  -11.3740    0.0000 C   0  0  0  0  0  0  0  0  0  0  0  0
    5.9376  -11.4126    0.0000 F   0  0  0  0  0  0  0  0  0  0  0  0
    6.9401  -13.1862    0.0000 F   0  0  0  0  0  0  0  0  0  0  0  0
    5.9376  -12.5307    0.0000 F   0  0  0  0  0  0  0  0  0  0  0  0
    8.9064  -11.9524    0.0000 C   0  0  0  0  0  0  0  0  0  0  0  0
    7.9425  -10.2559    0.0000 F   0  0  0  0  0  0  0  0  0  0  0  0
    7.9425  -12.5307    0.0000 F   0  0  0  0  0  0  0  0  0  0  0  0
    9.9089  -11.3740    0.0000 C   0  0  0  0  0  0  0  0  0  0  0  0
    8.9064  -13.1091    0.0000 F   0  0  0  0  0  0  0  0  0  0  0  0
    8.9064  -10.8343    0.0000 F   0  0  0  0  0  0  0  0  0  0  0  0
    9.9089  -10.2174    0.0000 F   0  0  0  0  0  0  0  0  0  0  0  0
   10.9114  -11.9524    0.0000 C   0  0  0  0  0  0  0  0  0  0  0  0
    9.9089  -12.5693    0.0000 F   0  0  0  0  0  0  0  0  0  0  0  0
   11.9138  -11.3740    0.0000 C   0  0  0  0  0  0  0  0  0  0  0  0
   10.9114  -10.7186    0.0000 F   0  0  0  0  0  0  0  0  0  0  0  0
   10.9114  -13.2247    0.0000 F   0  0  0  0  0  0  0  0  0  0  0  0
   12.9163  -11.9524    0.0000 C   0  0  0  0  0  0  0  0  0  0  0  0
   11.9524  -10.1402    0.0000 F   0  0  0  0  0  0  0  0  0  0  0  0
   11.9138  -12.6464    0.0000 F   0  0  0  0  0  0  0  0  0  0  0  0
   13.9187  -11.3740    0.0000 O   0  0  0  0  0  0  0  0  0  0  0  0
   12.9163  -13.1476    0.0000 O   0  0  0  0  0  0  0  0  0  0  0  0
  1  2  1  0  0  0  0 
  1  3  1  0  0  0  0 
  1  4  1  0  0  0  0 
  1  5  1  0  0  0  0 
  2  6  1  0  0  0  0 
  2  7  1  0  0  0  0 
  2  8  1  0  0  0  0 
  6  9  1  0  0  0  0 
  6 10  1  0  0  0  0 
  6 11  1  0  0  0  0 
  9 12  1  0  0  0  0 
  9 13  1  0  0  0  0 
  9 14  1  0  0  0  0 
 13 15  1  0  0  0  0 
 13 16  1  0  0  0  0 
 13 17  1  0  0  0  0 
 15 18  1  0  0  0  0 
 15 19  1  0  0  0  0 
 15 20  1  0  0  0  0 
 18 21  1  0  0  0  0 
 18 22  2  0  0  0  0 
M  END
> <Name>
Heptanoic acid, tridecafluoro-

> <Source>
IndexNet2DMolFile

> <Tox>
-0.876

> <CAS>
375-85-9

$$$$

  CDK

 12 12  0  0  0  0  0  0  0  0999 V2000
    0.9948    3.4818    0.0000 F   0  0  0  0  0  0  0  0  0  0  0  0
    1.4922    2.5864    0.0000 C   0  0  0  0  0  0  0  0  0  0  0  0
    0.9948    1.7409    0.0000 C   0  0  0  0  0  0  0  0  0  0  0  0
    2.4870    2.5864    0.0000 C   0  0  0  0  0  0  0  0  0  0  0  0
    1.4922    0.8953    0.0000 C   0  0  0  0  0  0  0  0  0  0  0  0
    0.0000    1.7409    0.0000 F   0  0  0  0  0  0  0  0  0  0  0  0
    2.9844    3.4818    0.0000 F   0  0  0  0  0  0  0  0  0  0  0  0
    2.9844    1.7409    0.0000 C   0  0  0  0  0  0  0  0  0  0  0  0
    2.4870    0.8953    0.0000 C   0  0  0  0  0  0  0  0  0  0  0  0
    0.9948    0.0000    0.0000 F   0  0  0  0  0  0  0  0  0  0  0  0
    3.9792    1.7409    0.0000 F   0  0  0  0  0  0  0  0  0  0  0  0
    2.9844    0.0000    0.0000 F   0  0  0  0  0  0  0  0  0  0  0  0
  1  2  1  0  0  0  0 
  2  3  2  0  0  0  0 
  4  2  1  0  0  0  0 
  3  5  1  0  0  0  0 
  6  3  1  0  0  0  0 
  7  4  1  0  0  0  0 
  8  4  2  0  0  0  0 
  5  9  2  0  0  0  0 
 10  5  1  0  0  0  0 
 11  8  1  0  0  0  0 
  9  8  1  0  0  0  0 
 12  9  1  0  0  0  0 
M  END
> <Name>
HEXAFLUOROBENZENE

> <Source>
NIST2DMolFile

> <Tox>
1.927

> <CAS>
392-56-3

$$$$

  CDK

 11 11  0  0  0  0  0  0  0  0999 V2000
    2.0007    2.5650    0.0000 C   0  0  0  0  0  0  0  0  0  0  0  0
    1.4877    1.7442    0.0000 C   0  0  0  0  0  0  0  0  0  0  0  0
    3.0268    2.5650    0.0000 C   0  0  0  0  0  0  0  0  0  0  0  0
    2.0007    0.8721    0.0000 C   0  0  0  0  0  0  0  0  0  0  0  0
    0.5130    1.7442    0.0000 C   0  0  0  0  0  0  0  0  0  0  0  0
    3.5398    1.7442    0.0000 C   0  0  0  0  0  0  0  0  0  0  0  0
    3.0268    0.8721    0.0000 C   0  0  0  0  0  0  0  0  0  0  0  0
    1.4877    0.0000    0.0000 F   0  0  0  0  0  0  0  0  0  0  0  0
    0.0000    0.8721    0.0000 F   0  0  0  0  0  0  0  0  0  0  0  0
    0.0000    2.5650    0.0000 F   0  0  0  0  0  0  0  0  0  0  0  0
    0.8208    0.7695    0.0000 F   0  0  0  0  0  0  0  0  0  0  0  0
  1  2  2  0  0  0  0 
  3  1  1  0  0  0  0 
  2  4  1  0  0  0  0 
  2  5  1  0  0  0  0 
  6  3  2  0  0  0  0 
  4  7  2  0  0  0  0 
  4  8  1  0  0  0  0 
  5  9  1  0  0  0  0 
  5 10  1  0  0  0  0 
  5 11  1  0  0  0  0 
  7  6  1  0  0  0  0 
M  END
> <Name>
1-FLUORO-2-TRIFLUOROMETHYLBENZENE

> <Source>
NIST2DMolFile

> <Tox>
1.584

> <CAS>
392-85-8

$$$$

  CDK

 12 11  0  0  0  0  0  0  0  0999 V2000
    1.2853   -1.6224    0.5603 F   0  0  0  0  0  0  0  0  0  0  0  0
    1.2303   -0.4101   -0.0423 C   0  0  0  0  0  0  0  0  0  0  0  0
    1.3888   -0.5979   -1.3738 F   0  0  0  0  0  0  0  0  0  0  0  0
   -0.0394    0.1781    0.2087 O   0  0  0  0  0  0  0  0  0  0  0  0
    2.3292    0.4705    0.4893 C   0  0  0  0  0  0  0  0  0  0  0  0
   -1.1133   -0.6163   -0.2752 C   0  0  0  0  0  0  0  0  0  0  0  0
    2.2980    1.6707   -0.1409 F   0  0  0  0  0  0  0  0  0  0  0  0
    3.5323   -0.0880    0.2096 F   0  0  0  0  0  0  0  0  0  0  0  0
   -2.4147    0.0847    0.0163 C   0  0  0  0  0  0  0  0  0  0  0  0
   -2.5625    0.2801    1.3449 F   0  0  0  0  0  0  0  0  0  0  0  0
   -3.4687   -0.6415   -0.4123 F   0  0  0  0  0  0  0  0  0  0  0  0
   -2.4655    1.2923   -0.5845 F   0  0  0  0  0  0  0  0  0  0  0  0
  1  2  1  0  0  0  0 
  3  2  1  0  0  0  0 
  4  2  1  0  0  0  0 
  2  5  1  0  0  0  0 
  4  6  1  0  0  0  0 
  7  5  1  0  0  0  0 
  8  5  1  0  0  0  0 
  6  9  1  0  0  0  0 
 10  9  1  0  0  0  0 
 11  9  1  0  0  0  0 
 12  9  1  0  0  0  0 
M  END
> <Name>
CF3-CH2-O-CF2-CF2H

> <Source>
Chemidplus3DMolFile

> <Tox>
2.328

> <CAS>
406-78-0

$$$$

  CDK

 13 12  0  0  0  0  0  0  0  0999 V2000
    1.7449    1.3959    0.0000 C   0  0  0  0  0  0  0  0  0  0  0  0
    2.5924    0.8974    0.0000 O   0  0  0  0  0  0  0  0  0  0  0  0
    0.8475    0.8974    0.0000 C   0  0  0  0  0  0  0  0  0  0  0  0
    1.7449    2.3930    0.0000 O   0  0  0  0  0  0  0  0  0  0  0  0
    3.4399    1.3959    0.0000 C   0  0  0  0  0  0  0  0  0  0  0  0
    0.3490    1.7449    0.0000 F   0  0  0  0  0  0  0  0  0  0  0  0
    1.3461    0.0000    0.0000 F   0  0  0  0  0  0  0  0  0  0  0  0
    0.0000    0.3988    0.0000 F   0  0  0  0  0  0  0  0  0  0  0  0
    4.3373    0.8974    0.0000 C   0  0  0  0  0  0  0  0  0  0  0  0
    3.4399    2.3930    0.0000 O   0  0  0  0  0  0  0  0  0  0  0  0
    3.8387    0.0000    0.0000 F   0  0  0  0  0  0  0  0  0  0  0  0
    4.8358    1.7449    0.0000 F   0  0  0  0  0  0  0  0  0  0  0  0
    5.1848    0.3988    0.0000 F   0  0  0  0  0  0  0  0  0  0  0  0
  1  2  1  0  0  0  0 
  1  3  1  0  0  0  0 
  1  4  2  0  0  0  0 
  2  5  1  0  0  0  0 
  3  6  1  0  0  0  0 
  3  7  1  0  0  0  0 
  3  8  1  0  0  0  0 
  5  9  1  0  0  0  0 
  5 10  2  0  0  0  0 
  9 11  1  0  0  0  0 
  9 12  1  0  0  0  0 
  9 13  1  0  0  0  0 
M  END
> <Name>
TRIFLUOROACETIC ANHYDRIDE

> <Source>
NIST2DMolFile

> <Tox>
1.615

> <CAS>
407-25-0

$$$$

  CDK

  3  2  0  0  0  0  0  0  0  0999 V2000
    1.2720    0.0000    0.0000 O   0  0  0  0  0  0  0  0  0  0  0  0
   -0.0560    0.0000    0.0000 C   0  0  0  0  0  0  0  0  0  0  0  0
   -1.2160    0.0000    0.0000 N   0  0  0  0  0  0  0  0  0  0  0  0
  1  2  1  0  0  0  0 
  3  2  3  0  0  0  0 
M  END
> <Name>
CYANIC ACID

> <Source>
Chemidplus3DMolFile

> <Tox>
2.910

> <CAS>
420-05-3

$$$$

  CDK

  5  4  0  0  0  0  0  0  0  0999 V2000
    0.6254    1.0610    0.8806 C   0  0  0  0  0  0  0  0  0  0  0  0
    2.1177    1.2975    1.1963 C   0  0  0  0  0  0  0  0  0  0  0  0
    2.4280    2.5887    1.4527 F   0  0  0  0  0  0  0  0  0  0  0  0
    2.9544    0.9382    0.1964 F   0  0  0  0  0  0  0  0  0  0  0  0
    2.5657    0.6181    2.2764 F   0  0  0  0  0  0  0  0  0  0  0  0
  1  2  1  0  0  0  0 
  2  3  1  0  0  0  0 
  2  4  1  0  0  0  0 
  2  5  1  0  0  0  0 
M  END
> <Name>
1,1,1-TRIFLUOROETHANE

> <Source>
NIST3DMolFile

> <Tox>
3.980

> <CAS>
420-46-2

$$$$

  CDK

  9  8  0  0  0  0  0  0  0  0999 V2000
    1.0209    0.0000    0.0000 F   0  0  0  0  0  0  0  0  0  0  0  0
    1.0209    0.9699    0.0000 C   0  0  0  0  0  0  0  0  0  0  0  0
    0.0000    0.9699    0.0000 F   0  0  0  0  0  0  0  0  0  0  0  0
    1.0209    1.9908    0.0000 F   0  0  0  0  0  0  0  0  0  0  0  0
    1.9908    0.9699    0.0000 C   0  0  0  0  0  0  0  0  0  0  0  0
    1.9908    1.9908    0.0000 F   0  0  0  0  0  0  0  0  0  0  0  0
    1.9908    0.0000    0.0000 F   0  0  0  0  0  0  0  0  0  0  0  0
    3.0117    0.9699    0.0000 C   0  0  0  0  0  0  0  0  0  0  0  0
    3.5221    1.8376    0.0000 O   0  0  0  0  0  0  0  0  0  0  0  0
  1  2  1  0  0  0  0 
  2  3  1  0  0  0  0 
  2  4  1  0  0  0  0 
  2  5  1  0  0  0  0 
  5  6  1  0  0  0  0 
  5  7  1  0  0  0  0 
  5  8  1  0  0  0  0 
  8  9  1  0  0  0  0 
M  END
> <Name>
PENTAFLUORO-1-PROPANOL

> <Source>
NIST2DMolFile

> <Tox>
1.664

> <CAS>
422-05-9

$$$$

  CDK

 10  9  0  0  0  0  0  0  0  0999 V2000
    1.0087    2.0174    0.0000 F   0  0  0  0  0  0  0  0  0  0  0  0
    1.0087    1.0087    0.0000 C   0  0  0  0  0  0  0  0  0  0  0  0
    1.0087    0.0000    0.0000 F   0  0  0  0  0  0  0  0  0  0  0  0
    0.0000    1.0087    0.0000 F   0  0  0  0  0  0  0  0  0  0  0  0
    2.0174    1.0087    0.0000 C   0  0  0  0  0  0  0  0  0  0  0  0
    3.0261    1.0087    0.0000 C   0  0  0  0  0  0  0  0  0  0  0  0
    2.0174    2.0174    0.0000 F   0  0  0  0  0  0  0  0  0  0  0  0
    2.0174    0.0504    0.0000 F   0  0  0  0  0  0  0  0  0  0  0  0
    3.5305    1.8661    0.0000 Cl  0  0  0  0  0  0  0  0  0  0  0  0
    3.5305    0.1513    0.0000 Cl  0  0  0  0  0  0  0  0  0  0  0  0
  1  2  1  0  0  0  0 
  2  3  1  0  0  0  0 
  2  4  1  0  0  0  0 
  2  5  1  0  0  0  0 
  5  6  1  0  0  0  0 
  5  7  1  0  0  0  0 
  5  8  1  0  0  0  0 
  6  9  1  0  0  0  0 
  6 10  1  0  0  0  0 
M  END
> <Name>
3,3-Dichloro-1,1,1,2,2-pentafluoropropane

> <Source>
NIST2DMolFile

> <Tox>
2.380

> <CAS>
422-56-0

$$$$

  CDK

  5  4  0  0  0  0  0  0  0  0999 V2000
    1.7492    1.4993    0.0000 C   0  0  0  0  0  0  0  0  0  0  0  0
    0.8496    0.9995    0.0000 C   0  0  0  0  0  0  0  0  0  0  0  0
    2.5988    0.9995    0.0000 F   0  0  0  0  0  0  0  0  0  0  0  0
    0.8496    0.0000    0.0000 C   0  0  0  0  0  0  0  0  0  0  0  0
    0.0000    1.4993    0.0000 O   0  0  0  0  0  0  0  0  0  0  0  0
  1  2  1  0  0  0  0 
  1  3  1  0  0  0  0 
  2  4  1  0  0  0  0 
  2  5  2  0  0  0  0 
M  END
> <Name>
FLUOROACETONE

> <Source>
NIST2DMolFile

> <Tox>
1.802

> <CAS>
430-51-3

$$$$

  CDK

  6  5  0  0  0  0  0  0  0  0999 V2000
    1.3307   -0.0000    0.0000 C   0  0  0  0  0  0  0  0  0  0  0  0
    1.9943   -1.1509    0.0000 C   0  0  0  0  0  0  0  0  0  0  0  0
    1.3307   -2.3053    0.0000 C   0  0  0  0  0  0  0  0  0  0  0  0
    3.3250   -1.1509    0.0000 O   0  0  0  0  0  0  0  0  0  0  0  0
    1.9943   -3.4563    0.0000 C   0  0  0  0  0  0  0  0  0  0  0  0
    0.0000   -2.3053    0.0000 O   0  0  0  0  0  0  0  0  0  0  0  0
  1  2  1  0  0  0  0 
  2  3  1  0  0  0  0 
  2  4  2  0  0  0  0 
  3  5  1  0  0  0  0 
  3  6  2  0  0  0  0 
M  END
> <Name>
2,3-BUTANEDIONE

> <Source>
DSSTox2DMolFile

> <Tox>
1.754

> <CAS>
431-03-8

$$$$

  CDK

 15 15  0  0  0  0  0  0  0  0999 V2000
    2.4619    0.8541    0.0000 C   0  0  0  0  0  0  0  0  0  0  0  0
    1.9595    0.0000    0.0000 F   0  0  0  0  0  0  0  0  0  0  0  0
    1.9595    1.7083    0.0000 C   0  0  0  0  0  0  0  0  0  0  0  0
    3.4668    0.8541    0.0000 C   0  0  0  0  0  0  0  0  0  0  0  0
    2.4619    2.5624    0.0000 C   0  0  0  0  0  0  0  0  0  0  0  0
    1.0049    1.7083    0.0000 C   0  0  0  0  0  0  0  0  0  0  0  0
    3.9692    1.7083    0.0000 C   0  0  0  0  0  0  0  0  0  0  0  0
    4.0194    0.0000    0.0000 F   0  0  0  0  0  0  0  0  0  0  0  0
    3.4668    2.5624    0.0000 C   0  0  0  0  0  0  0  0  0  0  0  0
    1.9595    3.4668    0.0000 F   0  0  0  0  0  0  0  0  0  0  0  0
    1.0049    0.7034    0.0000 F   0  0  0  0  0  0  0  0  0  0  0  0
    1.0049    2.7131    0.0000 F   0  0  0  0  0  0  0  0  0  0  0  0
    0.0000    1.7083    0.0000 F   0  0  0  0  0  0  0  0  0  0  0  0
    4.9238    1.7083    0.0000 F   0  0  0  0  0  0  0  0  0  0  0  0
    4.0194    3.4668    0.0000 F   0  0  0  0  0  0  0  0  0  0  0  0
  1  2  1  0  0  0  0 
  1  3  2  0  0  0  0 
  4  1  1  0  0  0  0 
  3  5  1  0  0  0  0 
  3  6  1  0  0  0  0 
  7  4  2  0  0  0  0 
  4  8  1  0  0  0  0 
  5  9  2  0  0  0  0 
  5 10  1  0  0  0  0 
  6 11  1  0  0  0  0 
  6 12  1  0  0  0  0 
  6 13  1  0  0  0  0 
  9  7  1  0  0  0  0 
  7 14  1  0  0  0  0 
  9 15  1  0  0  0  0 
M  END
> <Name>
OCTAFLUOROTOLUENE

> <Source>
NIST2DMolFile

> <Tox>
1.462

> <CAS>
434-64-0

$$$$

  CDK

 11 11  0  0  0  0  0  0  0  0999 V2000
    2.5856    0.5070    0.0000 C   0  0  0  0  0  0  0  0  0  0  0  0
    2.5856    1.5209    0.0000 C   0  0  0  0  0  0  0  0  0  0  0  0
    1.7744    0.0507    0.0000 C   0  0  0  0  0  0  0  0  0  0  0  0
    1.7744    2.0279    0.0000 C   0  0  0  0  0  0  0  0  0  0  0  0
    3.4475    2.0279    0.0000 N   0  0  0  0  0  0  0  0  0  0  0  0
    0.8619    0.5577    0.0000 C   0  0  0  0  0  0  0  0  0  0  0  0
    0.8619    1.5209    0.0000 C   0  0  0  0  0  0  0  0  0  0  0  0
    1.7744    2.9912    0.0000 O   0  0  0  0  0  0  0  0  0  0  0  0
    4.3600    1.5209    0.0000 O   0  0  0  0  0  0  0  0  0  0  0  0
    3.4475    3.0419    0.0000 O   0  0  0  0  0  0  0  0  0  0  0  0
    0.0000    0.0000    0.0000 F   0  0  0  0  0  0  0  0  0  0  0  0
  2  1  2  0  0  0  0 
  1  3  1  0  0  0  0 
  4  2  1  0  0  0  0 
  2  5  1  0  0  0  0 
  3  6  2  0  0  0  0 
  7  4  2  0  0  0  0 
  4  8  1  0  0  0  0 
  5  9  2  0  0  0  0 
  5 10  2  0  0  0  0 
  6  7  1  0  0  0  0 
  6 11  1  0  0  0  0 
M  END
> <Name>
5-FLUORO-2-NITROPHENOL

> <Source>
NIST2DMolFile

> <Tox>
-1.640

> <CAS>
446-36-6

$$$$

  CDK

 15 16  0  0  0  0  0  0  0  0999 V2000
    3.4635    1.4844    0.0000 C   0  0  0  0  0  0  0  0  0  0  0  0
    2.5729    1.9792    0.0000 C   0  0  0  0  0  0  0  0  0  0  0  0
    4.3047    1.9297    0.0000 C   0  0  0  0  0  0  0  0  0  0  0  0
    2.5729    2.9687    0.0000 O   0  0  0  0  0  0  0  0  0  0  0  0
    1.7318    1.5338    0.0000 C   0  0  0  0  0  0  0  0  0  0  0  0
    4.3047    2.9687    0.0000 C   0  0  0  0  0  0  0  0  0  0  0  0
    5.1458    1.4349    0.0000 C   0  0  0  0  0  0  0  0  0  0  0  0
    0.8906    2.0286    0.0000 C   0  0  0  0  0  0  0  0  0  0  0  0
    1.7318    0.4948    0.0000 C   0  0  0  0  0  0  0  0  0  0  0  0
    5.1953    3.4635    0.0000 C   0  0  0  0  0  0  0  0  0  0  0  0
    6.0364    1.9297    0.0000 C   0  0  0  0  0  0  0  0  0  0  0  0
    0.0000    1.5338    0.0000 C   0  0  0  0  0  0  0  0  0  0  0  0
    0.8411    0.0000    0.0000 C   0  0  0  0  0  0  0  0  0  0  0  0
    6.0364    2.9193    0.0000 C   0  0  0  0  0  0  0  0  0  0  0  0
    0.0000    0.5443    0.0000 C   0  0  0  0  0  0  0  0  0  0  0  0
  1  2  1  0  0  0  0 
  1  3  1  0  0  0  0 
  2  4  2  0  0  0  0 
  2  5  1  0  0  0  0 
  3  6  2  0  0  0  0 
  7  3  1  0  0  0  0 
  8  5  2  0  0  0  0 
  5  9  1  0  0  0  0 
  6 10  1  0  0  0  0 
 11  7  2  0  0  0  0 
 12  8  1  0  0  0  0 
  9 13  2  0  0  0  0 
 10 14  2  0  0  0  0 
 14 11  1  0  0  0  0 
 15 12  2  0  0  0  0 
 13 15  1  0  0  0  0 
M  END
> <Name>
2-PHENYLACETOPHENONE

> <Source>
NIST2DMolFile

> <Tox>
-3.735

> <CAS>
451-40-1

$$$$

  CDK

 10 10  0  0  0  0  0  0  0  0999 V2000
    1.7688   -0.0348    0.0015 Si  0  0  0  0  0  0  0  0  0  0  0  0
    2.2484   -1.5664    0.0831 F   0  0  0  0  0  0  0  0  0  0  0  0
   -0.0947   -0.0063    0.0004 C   0  0  0  0  0  0  0  0  0  0  0  0
    2.4588    0.8373    1.4953 C   0  0  0  0  0  0  0  0  0  0  0  0
    2.4603    0.6741   -1.5756 C   0  0  0  0  0  0  0  0  0  0  0  0
   -0.7736    1.2121   -0.0125 C   0  0  0  0  0  0  0  0  0  0  0  0
   -0.8104   -1.2034    0.0122 C   0  0  0  0  0  0  0  0  0  0  0  0
   -2.1683    1.2334   -0.0136 C   0  0  0  0  0  0  0  0  0  0  0  0
   -2.2052   -1.1822    0.0110 C   0  0  0  0  0  0  0  0  0  0  0  0
   -2.8842    0.0362   -0.0019 C   0  0  0  0  0  0  0  0  0  0  0  0
  1  2  1  0  0  0  0 
  1  3  1  0  0  0  0 
  1  4  1  0  0  0  0 
  1  5  1  0  0  0  0 
  3  6  2  0  0  0  0 
  3  7  1  0  0  0  0 
  6  8  1  0  0  0  0 
  7  9  2  0  0  0  0 
  8 10  2  0  0  0  0 
  9 10  1  0  0  0  0 
M  END
> <Name>
FLUORODIMETHYLPHENYLSILANE

> <Source>
Chemidplus3DMolFile

> <Tox>
0.462

> <CAS>
454-57-9

$$$$

  CDK

  4  3  0  0  0  0  0  0  0  0999 V2000
    2.2562    0.0377    0.1327 C   0  0  0  0  0  0  0  0  0  0  0  0
    3.6257    0.0605    0.0827 C   0  0  0  0  0  0  0  0  0  0  0  0
    1.0638    0.0178    0.1762 C   0  0  0  0  0  0  0  0  0  0  0  0
    4.8181    0.0804    0.0390 C   0  0  0  0  0  0  0  0  0  0  0  0
  1  2  1  0  0  0  0 
  1  3  3  0  0  0  0 
  2  4  3  0  0  0  0 
M  END
> <Name>
DIACETYLENE

> <Source>
NIST3DMolFile

> <Tox>
3.121

> <CAS>
460-12-8

$$$$

  CDK

  4  3  0  0  0  0  0  0  0  0999 V2000
    1.7489    0.4997    0.0000 C   0  0  0  0  0  0  0  0  0  0  0  0
    0.8495    0.0000    0.0000 C   0  0  0  0  0  0  0  0  0  0  0  0
    2.5984    0.0000    0.0000 F   0  0  0  0  0  0  0  0  0  0  0  0
    0.0000    0.4997    0.0000 C   0  0  0  0  0  0  0  0  0  0  0  0
  1  2  1  0  0  0  0 
  1  3  1  0  0  0  0 
  2  4  1  0  0  0  0 
M  END
> <Name>
1-FLUOROPROPANE

> <Source>
NIST2DMolFile

> <Tox>
3.303

> <CAS>
460-13-9

$$$$

  CDK

  8  7  0  0  0  0  0  0  0  0999 V2000
    1.1068   -1.2303    0.3894 F   0  0  0  0  0  0  0  0  0  0  0  0
    1.0961    0.0666    0.0157 C   0  0  0  0  0  0  0  0  0  0  0  0
    1.3166    0.1199   -1.3150 F   0  0  0  0  0  0  0  0  0  0  0  0
    2.1341    0.6779    0.6282 F   0  0  0  0  0  0  0  0  0  0  0  0
   -0.2070    0.7383    0.3847 C   0  0  0  0  0  0  0  0  0  0  0  0
   -1.3979    0.0962   -0.2973 C   0  0  0  0  0  0  0  0  0  0  0  0
   -1.5162   -1.1956    0.0972 F   0  0  0  0  0  0  0  0  0  0  0  0
   -2.5325    0.7271    0.0972 F   0  0  0  0  0  0  0  0  0  0  0  0
  1  2  1  0  0  0  0 
  3  2  1  0  0  0  0 
  4  2  1  0  0  0  0 
  5  2  1  0  0  0  0 
  5  6  1  0  0  0  0 
  7  6  1  0  0  0  0 
  8  6  1  0  0  0  0 
M  END
> <Name>
HFC-245fa

> <Source>
Chemidplus3DMolFile

> <Tox>
3.053

> <CAS>
460-73-1

$$$$

  CDK

  6  5  0  0  0  0  0  0  0  0999 V2000
   -1.7266   -0.6531    0.0000 F   0  0  0  0  0  0  0  0  0  0  0  0
   -1.0122   -0.2406    0.0000 C   0  0  0  0  0  0  0  0  0  0  0  0
   -1.4247    0.4738    0.0000 F   0  0  0  0  0  0  0  0  0  0  0  0
   -0.2977    0.1719    0.0000 C   0  0  0  0  0  0  0  0  0  0  0  0
    0.4168    0.5844    0.0000 O   0  0  0  0  0  0  0  0  0  0  0  0
    1.1312    0.1719    0.0000 C   0  0  0  0  0  0  0  0  0  0  0  0
  1  2  1  0  0  0  0 
  2  3  1  0  0  0  0 
  2  4  1  0  0  0  0 
  4  5  1  0  0  0  0 
  5  6  1  0  0  0  0 
M  END
> <Name>
Ethane, 1,1-difluoro-2-methoxy-

> <Source>
Smiles

> <Tox>
2.477

> <CAS>
461-57-4

$$$$

  CDK

  7  7  0  0  0  0  0  0  0  0999 V2000
    0.0000   -1.1496    0.0000 F   0  0  0  0  0  0  0  0  0  0  0  0
    1.3292   -1.1496    0.0000 C   0  0  0  0  0  0  0  0  0  0  0  0
    1.9958   -0.0000    0.0000 C   0  0  0  0  0  0  0  0  0  0  0  0
    1.9958   -2.3032    0.0000 C   0  0  0  0  0  0  0  0  0  0  0  0
    3.3250   -0.0000    0.0000 C   0  0  0  0  0  0  0  0  0  0  0  0
    3.3250   -2.3032    0.0000 C   0  0  0  0  0  0  0  0  0  0  0  0
    3.9916   -1.1496    0.0000 C   0  0  0  0  0  0  0  0  0  0  0  0
  1  2  1  0  0  0  0 
  2  3  2  0  0  0  0 
  2  4  1  0  0  0  0 
  3  5  1  0  0  0  0 
  6  4  2  0  0  0  0 
  5  7  2  0  0  0  0 
  7  6  1  0  0  0  0 
M  END
> <Name>
FLUOROBENZENE

> <Source>
DSSTox2DMolFile

> <Tox>
1.888

> <CAS>
462-06-6

$$$$

  CDK

 14 13  0  0  0  0  0  0  0  0999 V2000
   11.9750   -0.0000    0.0000 C   0  0  0  0  0  0  0  0  0  0  0  0
   11.3044   -1.1496    0.0000 C   0  0  0  0  0  0  0  0  0  0  0  0
    9.9752   -1.1496    0.0000 C   0  0  0  0  0  0  0  0  0  0  0  0
    9.3165   -2.3112    0.0000 C   0  0  0  0  0  0  0  0  0  0  0  0
    7.9873   -2.3112    0.0000 C   0  0  0  0  0  0  0  0  0  0  0  0
    7.3167   -3.4608    0.0000 C   0  0  0  0  0  0  0  0  0  0  0  0
    5.9875   -3.4608    0.0000 C   0  0  0  0  0  0  0  0  0  0  0  0
    5.3169   -2.3112    0.0000 O   0  0  0  0  0  0  0  0  0  0  0  0
    5.3169   -4.6104    0.0000 C   0  0  0  0  0  0  0  0  0  0  0  0
    3.9877   -4.6104    0.0000 C   0  0  0  0  0  0  0  0  0  0  0  0
    3.3290   -3.4608    0.0000 C   0  0  0  0  0  0  0  0  0  0  0  0
    1.9998   -3.4608    0.0000 C   0  0  0  0  0  0  0  0  0  0  0  0
    1.3292   -2.3112    0.0000 C   0  0  0  0  0  0  0  0  0  0  0  0
    0.0000   -2.3112    0.0000 C   0  0  0  0  0  0  0  0  0  0  0  0
  1  2  1  0  0  0  0 
  2  3  1  0  0  0  0 
  3  4  1  0  0  0  0 
  4  5  1  0  0  0  0 
  5  6  1  0  0  0  0 
  6  7  1  0  0  0  0 
  7  8  2  0  0  0  0 
  7  9  1  0  0  0  0 
  9 10  1  0  0  0  0 
 10 11  1  0  0  0  0 
 11 12  1  0  0  0  0 
 12 13  1  0  0  0  0 
 13 14  1  0  0  0  0 
M  END
> <Name>
TRIDECAN-7-ONE

> <Source>
DSSTox2DMolFile

> <Tox>
-2.175

> <CAS>
462-18-0

$$$$

  CDK

  8  7  0  0  0  0  0  0  0  0999 V2000
    0.0000   -0.0000    0.0000 O   0  0  0  0  0  0  0  0  0  0  0  0
    1.1546   -0.6621    0.0000 N   0  0  0  0  0  0  0  0  0  0  0  0
    2.3093   -0.0000    0.0000 O   0  0  0  0  0  0  0  0  0  0  0  0
    3.4639   -0.6621    0.0000 C   0  0  0  0  0  0  0  0  0  0  0  0
    4.6105   -0.0000    0.0000 C   0  0  0  0  0  0  0  0  0  0  0  0
    5.7651   -0.6621    0.0000 C   0  0  0  0  0  0  0  0  0  0  0  0
    6.9197   -0.0000    0.0000 C   0  0  0  0  0  0  0  0  0  0  0  0
    8.0744   -0.6621    0.0000 C   0  0  0  0  0  0  0  0  0  0  0  0
  1  2  2  0  0  0  0 
  2  3  1  0  0  0  0 
  3  4  1  0  0  0  0 
  4  5  1  0  0  0  0 
  5  6  1  0  0  0  0 
  6  7  1  0  0  0  0 
  7  8  1  0  0  0  0 
M  END
> <Name>
AMYL NITRITE

> <Source>
DSSTox2DMolFile

> <Tox>
0.599

> <CAS>
463-04-7

$$$$

  CDK

 20 19  0  0  0  0  0  0  0  0999 V2000
    1.1516   -1.3288    0.0000 C   0  0  0  0  0  0  0  0  0  0  0  0
    2.3033   -1.9996    0.0000 C   0  0  0  0  0  0  0  0  0  0  0  0
    0.0000   -1.9996    0.0000 O   0  0  0  0  0  0  0  0  0  0  0  0
    1.1516   -0.0000    0.0000 O   0  0  0  0  0  0  0  0  0  0  0  0
    3.4549   -1.3288    0.0000 C   0  0  0  0  0  0  0  0  0  0  0  0
    4.6066   -1.9996    0.0000 C   0  0  0  0  0  0  0  0  0  0  0  0
    5.7582   -1.3288    0.0000 C   0  0  0  0  0  0  0  0  0  0  0  0
    6.8972   -1.9996    0.0000 C   0  0  0  0  0  0  0  0  0  0  0  0
    8.0488   -1.3288    0.0000 C   0  0  0  0  0  0  0  0  0  0  0  0
    9.2005   -1.9996    0.0000 C   0  0  0  0  0  0  0  0  0  0  0  0
   10.3521   -1.3288    0.0000 C   0  0  0  0  0  0  0  0  0  0  0  0
   11.5038   -1.9996    0.0000 C   0  0  0  0  0  0  0  0  0  0  0  0
   11.5038   -3.3284    0.0000 C   0  0  0  0  0  0  0  0  0  0  0  0
   12.6554   -3.9865    0.0000 C   0  0  0  0  0  0  0  0  0  0  0  0
   12.6554   -5.3153    0.0000 C   0  0  0  0  0  0  0  0  0  0  0  0
   11.5038   -5.9860    0.0000 C   0  0  0  0  0  0  0  0  0  0  0  0
   11.5038   -7.3148    0.0000 C   0  0  0  0  0  0  0  0  0  0  0  0
   10.3521   -7.9729    0.0000 C   0  0  0  0  0  0  0  0  0  0  0  0
    9.2005   -7.3148    0.0000 C   0  0  0  0  0  0  0  0  0  0  0  0
    8.0488   -7.9729    0.0000 C   0  0  0  0  0  0  0  0  0  0  0  0
  1  2  1  0  0  0  0 
  1  3  1  0  0  0  0 
  1  4  2  0  0  0  0 
  2  5  1  0  0  0  0 
  5  6  1  0  0  0  0 
  6  7  1  0  0  0  0 
  7  8  1  0  0  0  0 
  8  9  1  0  0  0  0 
  9 10  1  0  0  0  0 
 10 11  1  0  0  0  0 
 11 12  2  0  0  0  0 
 12 13  1  0  0  0  0 
 13 14  1  0  0  0  0 
 14 15  2  0  0  0  0 
 15 16  1  0  0  0  0 
 16 17  1  0  0  0  0 
 17 18  2  0  0  0  0 
 18 19  1  0  0  0  0 
 19 20  1  0  0  0  0 
M  END
> <Name>
9,12,15-OCTADECATRIENOIC ACID, (Z,Z,Z)-

> <Source>
DSSTox2DMolFile

> <Tox>
-6.268

> <CAS>
463-40-1

$$$$

  CDK

  3  2  0  0  0  0  0  0  0  0999 V2000
    0.0000   -0.0000    0.0000 C   0  0  0  0  0  0  0  0  0  0  0  0
    1.1574   -0.6673    0.0000 C   0  0  0  0  0  0  0  0  0  0  0  0
    2.3010   -0.0000    0.0000 C   0  0  0  0  0  0  0  0  0  0  0  0
  1  2  2  0  0  0  0 
  2  3  2  0  0  0  0 
M  END
> <Name>
1,2-PROPADIENE

> <Source>
DSSTox2DMolFile

> <Tox>
3.735

> <CAS>
463-49-0

$$$$

  CDK

  7  6  0  0  0  0  0  0  0  0999 V2000
    3.2619    1.8701    2.4092 C   0  0  0  0  0  0  0  0  0  0  0  0
    1.7372    2.0464    2.1776 C   0  0  0  0  0  0  0  0  0  0  0  0
    3.9964    3.2002    2.4920 C   0  0  0  0  0  0  0  0  0  0  0  0
    3.9138    0.9914    1.3518 C   0  0  0  0  0  0  0  0  0  0  0  0
    1.1462    2.8777    3.3182 C   0  0  0  0  0  0  0  0  0  0  0  0
    1.4440    2.7422    0.8505 C   0  0  0  0  0  0  0  0  0  0  0  0
    1.0644    0.6721    2.1794 C   0  0  0  0  0  0  0  0  0  0  0  0
  1  2  1  0  0  0  0 
  1  3  1  0  0  0  0 
  1  4  1  0  0  0  0 
  2  5  1  0  0  0  0 
  2  6  1  0  0  0  0 
  2  7  1  0  0  0  0 
M  END
> <Name>
2,2,3-TRIMETHYLBUTANE

> <Source>
NIST3DMolFile

> <Tox>
2.009

> <CAS>
464-06-2

$$$$

  CDK

 11 12  0  0  0  0  0  0  0  0999 V2000
    3.3920   -0.6518    0.0000 C   0  0  0  0  0  0  0  0  0  0  0  0
    3.3920   -1.9555    0.0000 C   0  0  0  0  0  0  0  0  0  0  0  0
    2.2533   -0.0000    0.0000 C   0  0  0  0  0  0  0  0  0  0  0  0
    2.2533   -2.6074    0.0000 C   0  0  0  0  0  0  0  0  0  0  0  0
    1.1347   -0.6518    0.0000 C   0  0  0  0  0  0  0  0  0  0  0  0
    2.9051   -1.1347    0.0000 C   0  0  0  0  0  0  0  0  0  0  0  0
    1.1347   -1.9555    0.0000 C   0  0  0  0  0  0  0  0  0  0  0  0
    2.2533   -3.9111    0.0000 C   0  0  0  0  0  0  0  0  0  0  0  0
    4.0237   -0.4668    0.0000 C   0  0  0  0  0  0  0  0  0  0  0  0
    4.0237   -1.8067    0.0000 C   0  0  0  0  0  0  0  0  0  0  0  0
    0.0000   -2.6074    0.0000 O   0  0  0  0  0  0  0  0  0  0  0  0
  1  2  1  0  0  0  0 
  1  3  1  0  0  0  0 
  2  4  1  0  0  0  0 
  3  5  1  0  0  0  0 
  3  6  1  6  0  0  0 
  4  7  1  0  0  0  0 
  4  6  1  6  0  0  0 
  4  8  1  0  0  0  0 
  5  7  1  0  0  0  0 
  6  9  1  0  0  0  0 
  6 10  1  0  0  0  0 
  7 11  2  0  0  0  0 
M  END
> <Name>
(1R,4R)-(+)-CAMPHOR

> <Source>
DSSTox2DMolFile

> <Tox>
-1.143

> <CAS>
464-49-3

$$$$

  CDK

 11 12  0  0  0  0  0  0  0  0999 V2000
    0.0368    1.6220   -0.2382 C   0  0  0  0  0  0  0  0  0  0  0  0
   -0.5033    0.1742   -0.0422 C   0  0  0  0  0  0  0  0  0  0  0  0
    1.5601    1.3992   -0.2614 C   0  0  0  0  0  0  0  0  0  0  0  0
   -0.2044   -0.2488    1.4258 C   0  0  0  0  0  0  0  0  0  0  0  0
   -1.9216   -0.0861   -0.5482 C   0  0  0  0  0  0  0  0  0  0  0  0
    0.4786   -0.6065   -0.7862 O   0  0  0  0  0  0  0  0  0  0  0  0
    1.6658   -0.1417   -0.0823 C   0  0  0  0  0  0  0  0  0  0  0  0
    1.3166   -0.4771    1.3957 C   0  0  0  0  0  0  0  0  0  0  0  0
   -2.9142    0.8241    0.1595 C   0  0  0  0  0  0  0  0  0  0  0  0
   -2.3148   -1.5431   -0.3535 C   0  0  0  0  0  0  0  0  0  0  0  0
    2.9195   -0.7795   -0.6203 C   0  0  0  0  0  0  0  0  0  0  0  0
  1  2  1  0  0  0  0 
  1  3  1  0  0  0  0 
  2  4  1  0  0  0  0 
  2  5  1  0  0  0  0 
  2  6  1  0  0  0  0 
  7  3  1  0  0  0  0 
  4  8  1  0  0  0  0 
  5  9  1  0  0  0  0 
  5 10  1  0  0  0  0 
  7  6  1  0  0  0  0 
  8  7  1  0  0  0  0 
  7 11  1  0  0  0  0 
M  END
> <Name>
1,4-CINEOL

> <Source>
DougDB3DMolFile

> <Tox>
0.286

> <CAS>
470-67-7

$$$$

  CDK

 11 12  0  0  0  0  0  0  0  0999 V2000
    1.5616   -0.0000    0.0000 C   0  0  0  0  0  0  0  0  0  0  0  0
    1.9893   -0.4818    0.0000 C   0  0  0  0  0  0  0  0  0  0  0  0
    1.5616   -1.6114    0.0000 C   0  0  0  0  0  0  0  0  0  0  0  0
    1.9893   -2.2842    0.0000 C   0  0  0  0  0  0  0  0  0  0  0  0
    0.1703   -2.4213    0.0000 O   0  0  0  0  0  0  0  0  0  0  0  0
    3.1730   -2.1472    0.0000 C   0  0  0  0  0  0  0  0  0  0  0  0
    0.4818   -1.0300    0.0000 C   0  0  0  0  0  0  0  0  0  0  0  0
    1.0134   -2.9529    0.0000 C   0  0  0  0  0  0  0  0  0  0  0  0
    3.3308   -2.9529    0.0000 C   0  0  0  0  0  0  0  0  0  0  0  0
    0.0000   -4.0825    0.0000 C   0  0  0  0  0  0  0  0  0  0  0  0
    1.6322   -4.1531    0.0000 C   0  0  0  0  0  0  0  0  0  0  0  0
  1  2  1  0  0  0  0 
  1  3  1  0  0  0  0 
  4  2  1  0  0  0  0 
  5  3  1  0  0  0  0 
  3  6  1  0  0  0  0 
  3  7  1  0  0  0  0 
  8  4  1  0  0  0  0 
  4  9  1  0  0  0  0 
  5  8  1  0  0  0  0 
  6  9  1  0  0  0  0 
  8 10  1  0  0  0  0 
  8 11  1  0  0  0  0 
M  END
> <Name>
1,8-CINEOLE

> <Source>
DSSTox2DMolFile

> <Tox>
0.279

> <CAS>
470-82-6

$$$$

  CDK

 20 20  0  0  0  0  0  0  0  0999 V2000
    5.7700   -3.3166    0.0000 P   0  0  0  0  0  0  0  0  0  0  0  0
    7.0967   -3.3166    0.0000 O   0  0  0  0  0  0  0  0  0  0  0  0
    5.7700   -4.6433    0.0000 O   0  0  0  0  0  0  0  0  0  0  0  0
    4.4434   -3.3166    0.0000 O   0  0  0  0  0  0  0  0  0  0  0  0
    5.7700   -1.9809    0.0000 O   0  0  0  0  0  0  0  0  0  0  0  0
    7.7600   -2.1626    0.0000 C   0  0  0  0  0  0  0  0  0  0  0  0
    4.6160   -5.3157    0.0000 C   0  0  0  0  0  0  0  0  0  0  0  0
    6.9240   -1.3266    0.0000 C   0  0  0  0  0  0  0  0  0  0  0  0
    9.0866   -2.1626    0.0000 C   0  0  0  0  0  0  0  0  0  0  0  0
    4.6160   -6.6514    0.0000 C   0  0  0  0  0  0  0  0  0  0  0  0
    3.4620   -4.6433    0.0000 C   0  0  0  0  0  0  0  0  0  0  0  0
    6.9240   -0.0000    0.0000 C   0  0  0  0  0  0  0  0  0  0  0  0
    3.4620   -7.3056    0.0000 Cl  0  0  0  0  0  0  0  0  0  0  0  0
    2.3080   -5.3157    0.0000 C   0  0  0  0  0  0  0  0  0  0  0  0
    3.4620   -3.3166    0.0000 C   0  0  0  0  0  0  0  0  0  0  0  0
    1.1540   -4.6433    0.0000 C   0  0  0  0  0  0  0  0  0  0  0  0
    2.3080   -6.6514    0.0000 Cl  0  0  0  0  0  0  0  0  0  0  0  0
    2.3080   -2.6624    0.0000 C   0  0  0  0  0  0  0  0  0  0  0  0
    1.1540   -3.3166    0.0000 C   0  0  0  0  0  0  0  0  0  0  0  0
    0.0000   -2.6624    0.0000 Cl  0  0  0  0  0  0  0  0  0  0  0  0
  1  2  1  0  0  0  0 
  1  3  1  0  0  0  0 
  1  4  2  0  0  0  0 
  1  5  1  0  0  0  0 
  2  6  1  0  0  0  0 
  3  7  1  0  0  0  0 
  5  8  1  0  0  0  0 
  6  9  1  0  0  0  0 
  7 10  2  0  0  0  0 
  7 11  1  0  0  0  0 
  8 12  1  0  0  0  0 
 10 13  1  0  0  0  0 
 11 14  2  0  0  0  0 
 11 15  1  0  0  0  0 
 14 16  1  0  0  0  0 
 14 17  1  0  0  0  0 
 15 18  2  0  0  0  0 
 16 19  2  0  0  0  0 
 18 19  1  0  0  0  0 
 19 20  1  0  0  0  0 
M  END
> <Name>
CHLORFENVINPHOS

> <Source>
DSSTox2DMolFile

> <Tox>
-5.125

> <CAS>
470-90-6

$$$$

  CDK

  6  5  0  0  0  0  0  0  0  0999 V2000
    1.3337    1.1329    0.0000 O   0  0  0  0  0  0  0  0  0  0  0  0
    0.7571   -0.0786   -0.0003 C   0  0  0  0  0  0  0  0  0  0  0  0
    1.3226   -1.1537    0.0003 O   0  0  0  0  0  0  0  0  0  0  0  0
   -0.7481    0.0650   -0.0001 C   0  0  0  0  0  0  0  0  0  0  0  0
   -1.2595    1.1733    0.0002 O   0  0  0  0  0  0  0  0  0  0  0  0
   -1.4058   -1.1388   -0.0001 N   0  0  0  0  0  0  0  0  0  0  0  0
  1  2  1  0  0  0  0 
  3  2  2  0  0  0  0 
  4  2  1  0  0  0  0 
  5  4  2  0  0  0  0 
  6  4  1  0  0  0  0 
M  END
> <Name>
OXAMIC ACID

> <Source>
Chemidplus3DMolFile

> <Tox>
-6.333

> <CAS>
471-47-6

$$$$

  CDK

 10 10  0  0  0  0  0  0  0  0999 V2000
   -1.4017    0.5318   -0.0039 C   0  0  0  0  0  0  0  0  0  0  0  0
   -0.7037   -0.6826   -0.0058 C   0  0  0  0  0  0  0  0  0  0  0  0
   -0.6926    1.7353   -0.0011 C   0  0  0  0  0  0  0  0  0  0  0  0
   -2.8880    0.5979    0.0108 C   0  0  0  0  0  0  0  0  0  0  0  0
    0.7039   -0.6821    0.0065 C   0  0  0  0  0  0  0  0  0  0  0  0
   -1.4360   -1.9786   -0.0191 C   0  0  0  0  0  0  0  0  0  0  0  0
    0.6915    1.7357    0.0012 C   0  0  0  0  0  0  0  0  0  0  0  0
    1.4013    0.5326    0.0040 C   0  0  0  0  0  0  0  0  0  0  0  0
    1.4375   -1.9774    0.0189 C   0  0  0  0  0  0  0  0  0  0  0  0
    2.8877    0.5987   -0.0113 C   0  0  0  0  0  0  0  0  0  0  0  0
  1  2  1  0  0  0  0 
  1  3  2  0  0  0  0 
  1  4  1  0  0  0  0 
  2  5  2  0  0  0  0 
  2  6  1  0  0  0  0 
  7  3  1  0  0  0  0 
  5  8  1  0  0  0  0 
  5  9  1  0  0  0  0 
  8  7  2  0  0  0  0 
  8 10  1  0  0  0  0 
M  END
> <Name>
1,2,3,4-TETRAMETHYLBENZENE

> <Source>
DougDB3DMolFile

> <Tox>
-0.442

> <CAS>
488-23-3

$$$$

  CDK

 11 12  0  0  0  0  0  0  0  0999 V2000
    2.5864    1.9896    0.0000 C   0  0  0  0  0  0  0  0  0  0  0  0
    2.5864    2.9844    0.0000 C   0  0  0  0  0  0  0  0  0  0  0  0
    1.7409    1.4922    0.0000 C   0  0  0  0  0  0  0  0  0  0  0  0
    3.4818    1.4922    0.0000 C   0  0  0  0  0  0  0  0  0  0  0  0
    1.7409    0.4974    0.0000 C   0  0  0  0  0  0  0  0  0  0  0  0
    0.8953    1.9896    0.0000 C   0  0  0  0  0  0  0  0  0  0  0  0
    3.4818    0.4974    0.0000 C   0  0  0  0  0  0  0  0  0  0  0  0
    2.5864    0.0000    0.0000 N   0  0  0  0  0  0  0  0  0  0  0  0
    0.8953    0.0000    0.0000 C   0  0  0  0  0  0  0  0  0  0  0  0
    0.0000    1.4922    0.0000 C   0  0  0  0  0  0  0  0  0  0  0  0
    0.0000    0.4974    0.0000 C   0  0  0  0  0  0  0  0  0  0  0  0
  1  2  1  0  0  0  0 
  3  1  2  0  0  0  0 
  1  4  1  0  0  0  0 
  3  5  1  0  0  0  0 
  6  3  1  0  0  0  0 
  4  7  2  0  0  0  0 
  8  5  2  0  0  0  0 
  5  9  1  0  0  0  0 
 10  6  2  0  0  0  0 
  7  8  1  0  0  0  0 
  9 11  2  0  0  0  0 
 11 10  1  0  0  0  0 
M  END
> <Name>
4-METHYLQUINOLINE

> <Source>
NIST2DMolFile

> <Tox>
-2.196

> <CAS>
491-35-0

$$$$

  CDK

 12 12  0  0  0  0  0  0  0  0999 V2000
    4.2238    3.0022    0.0000 O   0  0  0  0  0  0  0  0  0  0  0  0
    3.3618    2.5044    0.0000 C   0  0  0  0  0  0  0  0  0  0  0  0
    2.4896    3.0022    0.0000 O   0  0  0  0  0  0  0  0  0  0  0  0
    3.3618    1.5037    0.0000 C   0  0  0  0  0  0  0  0  0  0  0  0
    1.6276    2.5043    0.0000 C   0  0  0  0  0  0  0  0  0  0  0  0
    2.4896    1.0007    0.0000 C   0  0  0  0  0  0  0  0  0  0  0  0
    4.2238    1.0008    0.0000 O   0  0  0  0  0  0  0  0  0  0  0  0
    1.6276    1.5035    0.0000 C   0  0  0  0  0  0  0  0  0  0  0  0
    0.7605    3.0021    0.0000 C   0  0  0  0  0  0  0  0  0  0  0  0
    2.4897    0.0000    0.0000 O   0  0  0  0  0  0  0  0  0  0  0  0
    0.7605    1.0007    0.0000 O   0  0  0  0  0  0  0  0  0  0  0  0
    0.0000    2.3562    0.0000 O   0  0  0  0  0  0  0  0  0  0  0  0
  2  1  1  6  0  0  0 
  3  2  1  0  0  0  0 
  2  4  1  0  0  0  0 
  5  3  1  0  0  0  0 
  4  6  1  0  0  0  0 
  4  7  1  6  0  0  0 
  8  5  1  0  0  0  0 
  5  9  1  1  0  0  0 
  6  8  1  0  0  0  0 
  6 10  1  1  0  0  0 
  8 11  1  6  0  0  0 
 12  9  1  0  0  0  0 
M  END
> <Name>
alpha-D-Glucose

> <Source>
NIST2DMolFile

> <Tox>
-13.096

> <CAS>
492-62-6

$$$$

  CDK

 10 11  0  0  0  0  0  0  0  0999 V2000
    1.4224    1.2123    0.7225 C   0  0  0  0  0  0  0  0  0  0  0  0
    2.2445    0.7320   -0.4643 C   0  0  0  0  0  0  0  0  0  0  0  0
   -0.0164    0.7031    0.7131 C   0  0  0  0  0  0  0  0  0  0  0  0
    1.9341   -0.7078   -0.8541 C   0  0  0  0  0  0  0  0  0  0  0  0
   -0.0706   -0.8386    0.6898 C   0  0  0  0  0  0  0  0  0  0  0  0
   -0.8146    1.3240   -0.4311 C   0  0  0  0  0  0  0  0  0  0  0  0
    1.2599   -1.4684    0.2725 C   0  0  0  0  0  0  0  0  0  0  0  0
   -1.2094   -1.3515   -0.1942 C   0  0  0  0  0  0  0  0  0  0  0  0
   -2.2807    0.9225   -0.3773 C   0  0  0  0  0  0  0  0  0  0  0  0
   -2.4740   -0.5385    0.0132 C   0  0  0  0  0  0  0  0  0  0  0  0
  1  2  1  0  0  0  0 
  1  3  1  0  0  0  0 
  2  4  1  0  0  0  0 
  5  3  1  0  0  0  0 
  6  3  1  0  0  0  0 
  4  7  1  0  0  0  0 
  7  5  1  0  0  0  0 
  5  8  1  0  0  0  0 
  9  6  1  0  0  0  0 
  8 10  1  0  0  0  0 
 10  9  1  0  0  0  0 
M  END
> <Name>
CIS-BICYCLO[4.4.0]DECANE

> <Source>
DougDB3DMolFile

> <Tox>
-0.105

> <CAS>
493-01-6

$$$$

  CDK

 10 11  0  0  0  0  0  0  0  0999 V2000
    1.2573    1.4547    0.1853 C   0  0  0  0  0  0  0  0  0  0  0  0
    2.5105    0.7156   -0.2563 C   0  0  0  0  0  0  0  0  0  0  0  0
    0.0000    0.7183   -0.2730 C   0  0  0  0  0  0  0  0  0  0  0  0
    2.5102   -0.7157    0.2569 C   0  0  0  0  0  0  0  0  0  0  0  0
    0.0000   -0.7184    0.2726 C   0  0  0  0  0  0  0  0  0  0  0  0
   -1.2574    1.4548    0.1848 C   0  0  0  0  0  0  0  0  0  0  0  0
    1.2573   -1.4547   -0.1858 C   0  0  0  0  0  0  0  0  0  0  0  0
   -1.2575   -1.4548   -0.1850 C   0  0  0  0  0  0  0  0  0  0  0  0
   -2.5102    0.7154   -0.2572 C   0  0  0  0  0  0  0  0  0  0  0  0
   -2.5102   -0.7154    0.2576 C   0  0  0  0  0  0  0  0  0  0  0  0
  1  2  1  0  0  0  0 
  1  3  1  0  0  0  0 
  2  4  1  0  0  0  0 
  5  3  1  0  0  0  0 
  6  3  1  0  0  0  0 
  4  7  1  0  0  0  0 
  7  5  1  0  0  0  0 
  5  8  1  0  0  0  0 
  9  6  1  0  0  0  0 
  8 10  1  0  0  0  0 
 10  9  1  0  0  0  0 
M  END
> <Name>
TRANS-BICYCLO[4.4.0]DECANE

> <Source>
DougDB3DMolFile

> <Tox>
0.086

> <CAS>
493-02-7

$$$$

  CDK

  9  9  0  0  0  0  0  0  0  0999 V2000
    4.6082   -2.6589    0.0000 N   0  0  0  0  0  0  0  0  0  0  0  0
    3.4561   -1.9953    0.0000 C   0  0  0  0  0  0  0  0  0  0  0  0
    2.3041   -2.6589    0.0000 C   0  0  0  0  0  0  0  0  0  0  0  0
    3.4561   -0.6636    0.0000 C   0  0  0  0  0  0  0  0  0  0  0  0
    1.1520   -1.9953    0.0000 C   0  0  0  0  0  0  0  0  0  0  0  0
    2.3041   -0.0000    0.0000 C   0  0  0  0  0  0  0  0  0  0  0  0
    4.6082   -0.0000    0.0000 N   0  0  0  0  0  0  0  0  0  0  0  0
    0.0000   -2.6589    0.0000 C   0  0  0  0  0  0  0  0  0  0  0  0
    1.1520   -0.6636    0.0000 C   0  0  0  0  0  0  0  0  0  0  0  0
  1  2  1  0  0  0  0 
  2  3  2  0  0  0  0 
  2  4  1  0  0  0  0 
  3  5  1  0  0  0  0 
  6  4  2  0  0  0  0 
  4  7  1  0  0  0  0 
  5  8  1  0  0  0  0 
  5  9  2  0  0  0  0 
  9  6  1  0  0  0  0 
M  END
> <Name>
3,4-DIAMINOTOLUENE

> <Source>
DSSTox2DMolFile

> <Tox>
-3.201

> <CAS>
496-72-0

$$$$

  CDK

 10 10  0  0  0  0  0  0  0  0999 V2000
    2.4991    0.8997    0.0000 C   0  0  0  0  0  0  0  0  0  0  0  0
    2.9989    0.0000    0.0000 C   0  0  0  0  0  0  0  0  0  0  0  0
    2.9989    1.7493    0.0000 C   0  0  0  0  0  0  0  0  0  0  0  0
    1.4994    0.8997    0.0000 C   0  0  0  0  0  0  0  0  0  0  0  0
    3.9985    1.7493    0.0000 C   0  0  0  0  0  0  0  0  0  0  0  0
    2.4991    2.5990    0.0000 C   0  0  0  0  0  0  0  0  0  0  0  0
    0.9996    1.7493    0.0000 C   0  0  0  0  0  0  0  0  0  0  0  0
    1.4994    2.5990    0.0000 C   0  0  0  0  0  0  0  0  0  0  0  0
    0.0000    1.7493    0.0000 C   0  0  0  0  0  0  0  0  0  0  0  0
    0.9996    3.4987    0.0000 O   0  0  0  0  0  0  0  0  0  0  0  0
  1  2  1  0  0  0  0 
  1  3  2  0  0  0  0 
  4  1  1  0  0  0  0 
  3  5  1  0  0  0  0 
  3  6  1  0  0  0  0 
  7  4  2  0  0  0  0 
  6  8  2  0  0  0  0 
  8  7  1  0  0  0  0 
  7  9  1  0  0  0  0 
  8 10  1  0  0  0  0 
M  END
> <Name>
2,4,5-TRIMETHYLPHENOL

> <Source>
NIST2DMolFile

> <Tox>
-2.168

> <CAS>
496-78-6

$$$$

  CDK

  7  8  0  0  0  0  0  0  0  0999 V2000
    1.9230   -0.0000    0.0000 C   0  0  0  0  0  0  0  0  0  0  0  0
    2.3769   -1.3976    0.0000 C   0  0  0  0  0  0  0  0  0  0  0  0
    0.4540   -0.0000    0.0000 C   0  0  0  0  0  0  0  0  0  0  0  0
    1.1885   -2.2605    0.0000 C   0  0  0  0  0  0  0  0  0  0  0  0
    1.3335   -1.7494    0.0000 C   0  0  0  0  0  0  0  0  0  0  0  0
    0.0000   -1.3976    0.0000 C   0  0  0  0  0  0  0  0  0  0  0  0
    0.4540   -1.1005    0.0000 C   0  0  0  0  0  0  0  0  0  0  0  0
  1  2  1  0  0  0  0 
  1  3  1  0  0  0  0 
  2  4  1  0  0  0  0 
  2  5  1  0  0  0  0 
  6  3  1  0  0  0  0 
  3  7  1  0  0  0  0 
  4  6  2  0  0  0  0 
  7  5  1  0  0  0  0 
M  END
> <Name>
BICYCLO[2.2.1]-2-HEPTENE

> <Source>
DSSTox2DMolFile

> <Tox>
1.593

> <CAS>
498-66-8

$$$$

  CDK

 11 11  0  0  0  0  0  0  0  0999 V2000
    4.4918    0.9084    0.0000 C   0  0  0  0  0  0  0  0  0  0  0  0
    3.4824    0.9084    0.0000 C   0  0  0  0  0  0  0  0  0  0  0  0
    4.9965    1.7664    0.0000 C   0  0  0  0  0  0  0  0  0  0  0  0
    3.0282    1.7664    0.0000 C   0  0  0  0  0  0  0  0  0  0  0  0
    4.4918    2.6244    0.0000 C   0  0  0  0  0  0  0  0  0  0  0  0
    3.4824    2.6244    0.0000 C   0  0  0  0  0  0  0  0  0  0  0  0
    2.0188    1.7664    0.0000 C   0  0  0  0  0  0  0  0  0  0  0  0
    1.5141    0.9084    0.0000 C   0  0  0  0  0  0  0  0  0  0  0  0
    0.5047    0.9084    0.0000 C   0  0  0  0  0  0  0  0  0  0  0  0
    0.0000    0.0000    0.0000 O   0  0  0  0  0  0  0  0  0  0  0  0
    0.0000    1.7664    0.0000 O   0  0  0  0  0  0  0  0  0  0  0  0
  2  1  2  0  0  0  0 
  1  3  1  0  0  0  0 
  4  2  1  0  0  0  0 
  3  5  2  0  0  0  0 
  6  4  2  0  0  0  0 
  4  7  1  0  0  0  0 
  5  6  1  0  0  0  0 
  7  8  1  0  0  0  0 
  8  9  1  0  0  0  0 
  9 10  1  0  0  0  0 
  9 11  2  0  0  0  0 
M  END
> <Name>
BETA-PHENYLPROPIONIC ACID

> <Source>
NIST2DMolFile

> <Tox>
-2.573

> <CAS>
501-52-0

$$$$

  CDK

 11 11  0  0  0  0  0  0  0  0999 V2000
    5.7556   -1.3303    0.0000 C   0  0  0  0  0  0  0  0  0  0  0  0
    5.7556   -0.0000    0.0000 O   0  0  0  0  0  0  0  0  0  0  0  0
    4.6183   -1.9990    0.0000 O   0  0  0  0  0  0  0  0  0  0  0  0
    6.8929   -1.9990    0.0000 Cl  0  0  0  0  0  0  0  0  0  0  0  0
    3.4465   -1.3303    0.0000 C   0  0  0  0  0  0  0  0  0  0  0  0
    2.2953   -1.9990    0.0000 C   0  0  0  0  0  0  0  0  0  0  0  0
    1.1718   -1.3303    0.0000 C   0  0  0  0  0  0  0  0  0  0  0  0
    2.2953   -3.3293    0.0000 C   0  0  0  0  0  0  0  0  0  0  0  0
    0.0000   -1.9990    0.0000 C   0  0  0  0  0  0  0  0  0  0  0  0
    1.1373   -4.0048    0.0000 C   0  0  0  0  0  0  0  0  0  0  0  0
    0.0000   -3.3293    0.0000 C   0  0  0  0  0  0  0  0  0  0  0  0
  1  2  2  0  0  0  0 
  1  3  1  0  0  0  0 
  1  4  1  0  0  0  0 
  3  5  1  0  0  0  0 
  5  6  1  0  0  0  0 
  6  7  2  0  0  0  0 
  6  8  1  0  0  0  0 
  7  9  1  0  0  0  0 
  8 10  2  0  0  0  0 
  9 11  2  0  0  0  0 
 10 11  1  0  0  0  0 
M  END
> <Name>
BENZYL CHLOROCARBONATE

> <Source>
DSSTox2DMolFile

> <Tox>
-2.506

> <CAS>
501-53-1

$$$$

  CDK

 14 15  0  0  0  0  0  0  0  0999 V2000
    5.2929    2.2003    0.4133 C   0  0  0  0  0  0  0  0  0  0  0  0
    6.4879    2.1800    0.4145 C   0  0  0  0  0  0  0  0  0  0  0  0
    3.8780    2.2235    0.4138 C   0  0  0  0  0  0  0  0  0  0  0  0
    7.9028    2.1560    0.4157 C   0  0  0  0  0  0  0  0  0  0  0  0
    3.1983    3.4463    0.4433 C   0  0  0  0  0  0  0  0  0  0  0  0
    3.1597    1.0229    0.3841 C   0  0  0  0  0  0  0  0  0  0  0  0
    8.6212    3.3338    0.6501 C   0  0  0  0  0  0  0  0  0  0  0  0
    8.5820    0.9549    0.1830 C   0  0  0  0  0  0  0  0  0  0  0  0
    1.8088    3.4615    0.4432 C   0  0  0  0  0  0  0  0  0  0  0  0
    1.7703    1.0519    0.3842 C   0  0  0  0  0  0  0  0  0  0  0  0
   10.0106    3.3040    0.6498 C   0  0  0  0  0  0  0  0  0  0  0  0
    9.9717    0.9386    0.1851 C   0  0  0  0  0  0  0  0  0  0  0  0
    1.0946    2.2679    0.4140 C   0  0  0  0  0  0  0  0  0  0  0  0
   10.6858    2.1099    0.4178 C   0  0  0  0  0  0  0  0  0  0  0  0
  1  2  3  0  0  0  0 
  1  3  1  0  0  0  0 
  2  4  1  0  0  0  0 
  5  3  2  0  0  0  0 
  3  6  1  0  0  0  0 
  4  7  2  0  0  0  0 
  8  4  1  0  0  0  0 
  9  5  1  0  0  0  0 
  6 10  2  0  0  0  0 
  7 11  1  0  0  0  0 
 12  8  2  0  0  0  0 
 13  9  2  0  0  0  0 
 10 13  1  0  0  0  0 
 11 14  2  0  0  0  0 
 14 12  1  0  0  0  0 
M  END
> <Name>
DIPHENYLACETYLENE

> <Source>
NIST3DMolFile

> <Tox>
-2.642

> <CAS>
501-65-5

$$$$

  CDK

  8  8  0  0  0  0  0  0  0  0999 V2000
    2.4483    2.2443    0.0000 C   0  0  0  0  0  0  0  0  0  0  0  0
    1.4792    2.0403    0.0000 C   0  0  0  0  0  0  0  0  0  0  0  0
    3.2134    1.6322    0.0000 C   0  0  0  0  0  0  0  0  0  0  0  0
    1.0201    1.1221    0.0000 C   0  0  0  0  0  0  0  0  0  0  0  0
    3.2134    0.6121    0.0000 C   0  0  0  0  0  0  0  0  0  0  0  0
    1.4792    0.2550    0.0000 C   0  0  0  0  0  0  0  0  0  0  0  0
    0.0000    1.1221    0.0000 O   0  0  0  0  0  0  0  0  0  0  0  0
    2.4483    0.0000    0.0000 C   0  0  0  0  0  0  0  0  0  0  0  0
  1  2  1  0  0  0  0 
  3  1  1  0  0  0  0 
  2  4  1  0  0  0  0 
  5  3  1  0  0  0  0 
  4  6  1  0  0  0  0 
  4  7  2  0  0  0  0 
  8  5  1  0  0  0  0 
  6  8  1  0  0  0  0 
M  END
> <Name>
CYCLOHEPTANONE

> <Source>
NIST2DMolFile

> <Tox>
0.097

> <CAS>
502-42-1

$$$$

  CDK

  8  8  0  0  0  0  0  0  0  0999 V2000
    1.8688   -0.0000    0.0000 O   0  0  0  0  0  0  0  0  0  0  0  0
    2.8748   -0.8628    0.0000 C   0  0  0  0  0  0  0  0  0  0  0  0
    0.5930   -0.2699    0.0000 C   0  0  0  0  0  0  0  0  0  0  0  0
    2.8748   -2.2041    0.0000 C   0  0  0  0  0  0  0  0  0  0  0  0
    4.0893   -0.3026    0.0000 O   0  0  0  0  0  0  0  0  0  0  0  0
    0.0000   -1.5171    0.0000 C   0  0  0  0  0  0  0  0  0  0  0  0
    1.8688   -3.0016    0.0000 C   0  0  0  0  0  0  0  0  0  0  0  0
    0.5930   -2.7480    0.0000 C   0  0  0  0  0  0  0  0  0  0  0  0
  1  2  1  0  0  0  0 
  1  3  1  0  0  0  0 
  2  4  1  0  0  0  0 
  2  5  2  0  0  0  0 
  6  3  1  0  0  0  0 
  4  7  1  0  0  0  0 
  8  6  1  0  0  0  0 
  7  8  1  0  0  0  0 
M  END
> <Name>
E-CAPROLACTONE

> <Source>
DSSTox2DMolFile

> <Tox>
-0.870

> <CAS>
502-44-3

$$$$

  CDK

  9  9  0  0  0  0  0  0  0  0999 V2000
    3.6490    1.3177    0.0000 O   0  0  0  0  0  0  0  0  0  0  0  0
    2.6354    1.3177    0.0000 C   0  0  0  0  0  0  0  0  0  0  0  0
    2.2300    0.4054    0.0000 C   0  0  0  0  0  0  0  0  0  0  0  0
    2.2300    2.2300    0.0000 C   0  0  0  0  0  0  0  0  0  0  0  0
    1.3177    0.0000    0.0000 C   0  0  0  0  0  0  0  0  0  0  0  0
    1.3177    2.6354    0.0000 C   0  0  0  0  0  0  0  0  0  0  0  0
    0.4054    0.4054    0.0000 C   0  0  0  0  0  0  0  0  0  0  0  0
    0.4054    2.2300    0.0000 C   0  0  0  0  0  0  0  0  0  0  0  0
    0.0000    1.3177    0.0000 C   0  0  0  0  0  0  0  0  0  0  0  0
  1  2  2  0  0  0  0 
  2  3  1  0  0  0  0 
  4  2  1  0  0  0  0 
  3  5  1  0  0  0  0 
  6  4  1  0  0  0  0 
  5  7  1  0  0  0  0 
  8  6  1  0  0  0  0 
  7  9  1  0  0  0  0 
  9  8  1  0  0  0  0 
M  END
> <Name>
CYCLOOCTANONE

> <Source>
NIST2DMolFile

> <Tox>
-0.389

> <CAS>
502-49-8

$$$$

  CDK

 10  9  0  0  0  0  0  0  0  0999 V2000
    8.0686   -0.0000    0.0000 C   0  0  0  0  0  0  0  0  0  0  0  0
    6.9148   -0.6697    0.0000 C   0  0  0  0  0  0  0  0  0  0  0  0
    6.9148   -2.0010    0.0000 C   0  0  0  0  0  0  0  0  0  0  0  0
    5.7610   -2.6626    0.0000 C   0  0  0  0  0  0  0  0  0  0  0  0
    4.6072   -2.0010    0.0000 C   0  0  0  0  0  0  0  0  0  0  0  0
    4.6072   -0.6697    0.0000 O   0  0  0  0  0  0  0  0  0  0  0  0
    3.4614   -2.6626    0.0000 C   0  0  0  0  0  0  0  0  0  0  0  0
    2.3076   -2.0010    0.0000 C   0  0  0  0  0  0  0  0  0  0  0  0
    1.1538   -2.6626    0.0000 C   0  0  0  0  0  0  0  0  0  0  0  0
    0.0000   -2.0010    0.0000 C   0  0  0  0  0  0  0  0  0  0  0  0
  1  2  1  0  0  0  0 
  2  3  1  0  0  0  0 
  3  4  1  0  0  0  0 
  4  5  1  0  0  0  0 
  5  6  2  0  0  0  0 
  5  7  1  0  0  0  0 
  7  8  1  0  0  0  0 
  8  9  1  0  0  0  0 
  9 10  1  0  0  0  0 
M  END
> <Name>
5-NONANONE

> <Source>
DSSTox2DMolFile

> <Tox>
-0.258

> <CAS>
502-56-7

$$$$

  CDK

  4  3  0  0  0  0  0  0  0  0999 V2000
    2.7256    2.6386    1.0482 C   0  0  0  0  0  0  0  0  0  0  0  0
    3.8658    3.5041    1.0314 C   0  0  0  0  0  0  0  0  0  0  0  0
    1.7752    1.9178    1.0620 C   0  0  0  0  0  0  0  0  0  0  0  0
    0.6345    1.0529    1.0786 C   0  0  0  0  0  0  0  0  0  0  0  0
  1  2  1  0  0  0  0 
  1  3  3  0  0  0  0 
  3  4  1  0  0  0  0 
M  END
> <Name>
2-BUTYNE

> <Source>
NIST3DMolFile

> <Tox>
2.849

> <CAS>
503-17-3

$$$$

  CDK

  4  4  0  0  0  0  0  0  0  0999 V2000
    0.0000    1.0000    0.0000 C   0  0  0  0  0  0  0  0  0  0  0  0
    0.0000    0.0000    0.0000 C   0  0  0  0  0  0  0  0  0  0  0  0
    1.0000    1.0000    0.0000 C   0  0  0  0  0  0  0  0  0  0  0  0
    1.0000    0.0000    0.0000 N   0  0  0  0  0  0  0  0  0  0  0  0
  2  1  1  0  0  0  0 
  1  3  1  0  0  0  0 
  4  2  1  0  0  0  0 
  3  4  1  0  0  0  0 
M  END
> <Name>
AZETIDINE

> <Source>
NIST2DMolFile

> <Tox>
2.250

> <CAS>
503-29-7

$$$$

  CDK

  4  4  0  0  0  0  0  0  0  0999 V2000
    1.3300   -1.3300    0.0000 C   0  0  0  0  0  0  0  0  0  0  0  0
    0.0000   -1.3300    0.0000 C   0  0  0  0  0  0  0  0  0  0  0  0
    1.3300   -0.0000    0.0000 C   0  0  0  0  0  0  0  0  0  0  0  0
    0.0000   -0.0000    0.0000 O   0  0  0  0  0  0  0  0  0  0  0  0
  1  2  1  0  0  0  0 
  1  3  1  0  0  0  0 
  2  4  1  0  0  0  0 
  4  3  1  0  0  0  0 
M  END
> <Name>
TRIMETHYLENEOXIDE

> <Source>
DSSTox2DMolFile

> <Tox>
2.511

> <CAS>
503-30-0

$$$$

  CDK

  6  5  0  0  0  0  0  0  0  0999 V2000
    0.0000    0.8659    0.0000 O   0  0  0  0  0  0  0  0  0  0  0  0
    0.9677    0.8659    0.0000 C   0  0  0  0  0  0  0  0  0  0  0  0
    1.4770    0.0000    0.0000 C   0  0  0  0  0  0  0  0  0  0  0  0
    1.4770    1.7317    0.0000 O   0  0  0  0  0  0  0  0  0  0  0  0
    2.4957    0.0000    0.0000 C   0  0  0  0  0  0  0  0  0  0  0  0
    3.0050    0.8659    0.0000 C   0  0  0  0  0  0  0  0  0  0  0  0
  1  2  2  0  0  0  0 
  2  3  1  0  0  0  0 
  2  4  1  0  0  0  0 
  3  5  2  0  0  0  0 
  5  6  1  0  0  0  0 
M  END
> <Name>
(Z)-2-BUTENOIC ACID (ISOCROTONIC ACID)

> <Source>
NIST2DMolFile

> <Tox>
-0.231

> <CAS>
503-64-0

$$$$

  CDK

  7  6  0  0  0  0  0  0  0  0999 V2000
    1.1545   -1.3346    0.0000 C   0  0  0  0  0  0  0  0  0  0  0  0
    2.3090   -1.9903    0.0000 C   0  0  0  0  0  0  0  0  0  0  0  0
    0.0000   -1.9903    0.0000 O   0  0  0  0  0  0  0  0  0  0  0  0
    1.1545   -0.0000    0.0000 O   0  0  0  0  0  0  0  0  0  0  0  0
    3.4634   -1.3346    0.0000 C   0  0  0  0  0  0  0  0  0  0  0  0
    4.6179   -1.9903    0.0000 C   0  0  0  0  0  0  0  0  0  0  0  0
    3.4634   -0.0000    0.0000 C   0  0  0  0  0  0  0  0  0  0  0  0
  1  2  1  0  0  0  0 
  1  3  1  0  0  0  0 
  1  4  2  0  0  0  0 
  2  5  1  0  0  0  0 
  5  6  1  0  0  0  0 
  5  7  1  0  0  0  0 
M  END
> <Name>
ISOVALERIC ACID

> <Source>
DSSTox2DMolFile

> <Tox>
-0.357

> <CAS>
503-74-2

$$$$

  CDK

  9  9  0  0  0  0  0  0  0  0999 V2000
    0.9044    0.5527    0.0000 C   0  0  0  0  0  0  0  0  0  0  0  0
    0.0000    0.0502    0.0000 O   0  0  0  0  0  0  0  0  0  0  0  0
    1.7585    0.0000    0.0000 C   0  0  0  0  0  0  0  0  0  0  0  0
    0.9044    1.5073    0.0000 N   0  0  0  0  0  0  0  0  0  0  0  0
    2.6127    0.5527    0.0000 C   0  0  0  0  0  0  0  0  0  0  0  0
    1.7585    2.0098    0.0000 C   0  0  0  0  0  0  0  0  0  0  0  0
    3.5171    0.0502    0.0000 O   0  0  0  0  0  0  0  0  0  0  0  0
    2.6127    1.5073    0.0000 N   0  0  0  0  0  0  0  0  0  0  0  0
    1.7585    3.0146    0.0000 S   0  0  0  0  0  0  0  0  0  0  0  0
  1  2  2  0  0  0  0 
  3  1  1  0  0  0  0 
  1  4  1  0  0  0  0 
  5  3  1  0  0  0  0 
  4  6  1  0  0  0  0 
  5  7  2  0  0  0  0 
  8  5  1  0  0  0  0 
  6  8  1  0  0  0  0 
  6  9  2  0  0  0  0 
M  END
> <Name>
Thiobarbituric Acid

> <Source>
NIST2DMolFile

> <Tox>
-7.699

> <CAS>
504-17-6

$$$$

  CDK

  5  4  0  0  0  0  0  0  0  0999 V2000
    0.0000   -0.0000    0.0000 C   0  0  0  0  0  0  0  0  0  0  0  0
    1.1557   -0.6741    0.0000 C   0  0  0  0  0  0  0  0  0  0  0  0
    2.2930   -0.0000    0.0000 C   0  0  0  0  0  0  0  0  0  0  0  0
    3.4486   -0.6741    0.0000 C   0  0  0  0  0  0  0  0  0  0  0  0
    4.5859   -0.0000    0.0000 C   0  0  0  0  0  0  0  0  0  0  0  0
  1  2  2  0  0  0  0 
  2  3  1  0  0  0  0 
  3  4  2  0  0  0  0 
  4  5  1  0  0  0  0 
M  END
> <Name>
1,3-PENTADIENE

> <Source>
DSSTox2DMolFile

> <Tox>
2.607

> <CAS>
504-60-9

$$$$

  CDK

  5  4  0  0  0  0  0  0  0  0999 V2000
    0.9847    2.0731    1.2722 C   0  0  0  0  0  0  0  0  0  0  0  0
    1.4370    3.2229    0.5931 O   0  0  0  0  0  0  0  0  0  0  0  0
    2.0077    0.9573    1.0734 C   0  0  0  0  0  0  0  0  0  0  0  0
    3.2757    1.1401    1.9100 C   0  0  0  0  0  0  0  0  0  0  0  0
    4.2478    1.9488    1.3070 O   0  0  0  0  0  0  0  0  0  0  0  0
  1  2  1  0  0  0  0 
  1  3  1  0  0  0  0 
  3  4  1  0  0  0  0 
  4  5  1  0  0  0  0 
M  END
> <Name>
1,3-PROPANEDIOL

> <Source>
NIST3DMolFile

> <Tox>
-1.356

> <CAS>
504-63-2

$$$$

  CDK

  6  6  0  0  0  0  0  0  0  0999 V2000
    0.6619   -0.0000    0.0000 C   0  0  0  0  0  0  0  0  0  0  0  0
    1.9964   -0.0000    0.0000 S   0  0  0  0  0  0  0  0  0  0  0  0
    0.0000   -1.1510    0.0000 C   0  0  0  0  0  0  0  0  0  0  0  0
    2.6583   -1.1510    0.0000 C   0  0  0  0  0  0  0  0  0  0  0  0
    0.6619   -2.3021    0.0000 S   0  0  0  0  0  0  0  0  0  0  0  0
    1.9964   -2.3021    0.0000 C   0  0  0  0  0  0  0  0  0  0  0  0
  1  2  1  0  0  0  0 
  1  3  1  0  0  0  0 
  2  4  1  0  0  0  0 
  5  3  1  0  0  0  0 
  4  6  1  0  0  0  0 
  6  5  1  0  0  0  0 
M  END
> <Name>
1,4-DITHIANE

> <Source>
DSSTox2DMolFile

> <Tox>
-0.097

> <CAS>
505-29-3

$$$$

  CDK

 12 11  0  0  0  0  0  0  0  0999 V2000
    9.2170   -0.0000    0.0000 O   0  0  0  0  0  0  0  0  0  0  0  0
    8.0649   -0.6728    0.0000 C   0  0  0  0  0  0  0  0  0  0  0  0
    8.0649   -2.0001    0.0000 C   0  0  0  0  0  0  0  0  0  0  0  0
    6.9128   -0.0000    0.0000 O   0  0  0  0  0  0  0  0  0  0  0  0
    6.9128   -2.6637    0.0000 C   0  0  0  0  0  0  0  0  0  0  0  0
    5.7606   -2.0001    0.0000 C   0  0  0  0  0  0  0  0  0  0  0  0
    4.6085   -2.6637    0.0000 C   0  0  0  0  0  0  0  0  0  0  0  0
    3.4564   -2.0001    0.0000 C   0  0  0  0  0  0  0  0  0  0  0  0
    2.3043   -2.6637    0.0000 C   0  0  0  0  0  0  0  0  0  0  0  0
    1.1521   -2.0001    0.0000 C   0  0  0  0  0  0  0  0  0  0  0  0
    0.0000   -2.6637    0.0000 O   0  0  0  0  0  0  0  0  0  0  0  0
    1.1521   -0.6728    0.0000 O   0  0  0  0  0  0  0  0  0  0  0  0
  1  2  1  0  0  0  0 
  2  3  1  0  0  0  0 
  2  4  2  0  0  0  0 
  3  5  1  0  0  0  0 
  5  6  1  0  0  0  0 
  6  7  1  0  0  0  0 
  7  8  1  0  0  0  0 
  8  9  1  0  0  0  0 
  9 10  1  0  0  0  0 
 10 11  1  0  0  0  0 
 10 12  2  0  0  0  0 
M  END
> <Name>
SUBERIC ACID

> <Source>
DSSTox2DMolFile

> <Tox>
-6.541

> <CAS>
505-48-6

$$$$

  CDK

 12 11  0  0  0  0  0  0  0  0999 V2000
    6.8207   -0.2911    0.0800 F   0  0  0  0  0  0  0  0  0  0  0  0
    5.7204    0.5039   -0.0071 C   0  0  0  0  0  0  0  0  0  0  0  0
    4.4828   -0.3761    0.0282 C   0  0  0  0  0  0  0  0  0  0  0  0
    3.2020    0.4534   -0.0370 C   0  0  0  0  0  0  0  0  0  0  0  0
    1.9270   -0.3945   -0.0383 C   0  0  0  0  0  0  0  0  0  0  0  0
    0.6430    0.4380   -0.0287 C   0  0  0  0  0  0  0  0  0  0  0  0
   -0.5986   -0.4585   -0.0430 C   0  0  0  0  0  0  0  0  0  0  0  0
   -1.8825    0.3731    0.0054 C   0  0  0  0  0  0  0  0  0  0  0  0
   -3.1603   -0.4715   -0.0376 C   0  0  0  0  0  0  0  0  0  0  0  0
   -4.4422    0.3652   -0.0118 C   0  0  0  0  0  0  0  0  0  0  0  0
   -5.7171   -0.4823    0.0171 C   0  0  0  0  0  0  0  0  0  0  0  0
   -6.9952    0.3404    0.0728 C   0  0  0  0  0  0  0  0  0  0  0  0
  1  2  1  0  0  0  0 
  3  2  1  0  0  0  0 
  4  3  1  0  0  0  0 
  5  4  1  0  0  0  0 
  6  5  1  0  0  0  0 
  7  6  1  0  0  0  0 
  7  8  1  0  0  0  0 
  8  9  1  0  0  0  0 
  9 10  1  0  0  0  0 
 10 11  1  0  0  0  0 
 11 12  1  0  0  0  0 
M  END
> <Name>
1-FLUOROUNDECANE

> <Source>
Chemidplus3DMolFile

> <Tox>
-0.682

> <CAS>
506-05-8

$$$$

  CDK

 19 18  0  0  0  0  0  0  0  0999 V2000
   16.1417   -0.0000    0.0000 O   0  0  0  0  0  0  0  0  0  0  0  0
   17.2854   -0.6641    0.0000 C   0  0  0  0  0  0  0  0  0  0  0  0
   18.4476   -0.0000    0.0000 O   0  0  0  0  0  0  0  0  0  0  0  0
   17.2854   -1.9923    0.0000 C   0  0  0  0  0  0  0  0  0  0  0  0
   16.1417   -2.6565    0.0000 C   0  0  0  0  0  0  0  0  0  0  0  0
   14.9795   -1.9923    0.0000 C   0  0  0  0  0  0  0  0  0  0  0  0
   13.8357   -2.6565    0.0000 C   0  0  0  0  0  0  0  0  0  0  0  0
   12.6735   -1.9923    0.0000 C   0  0  0  0  0  0  0  0  0  0  0  0
   11.5298   -2.6565    0.0000 C   0  0  0  0  0  0  0  0  0  0  0  0
   10.3676   -1.9923    0.0000 C   0  0  0  0  0  0  0  0  0  0  0  0
    9.2238   -2.6565    0.0000 C   0  0  0  0  0  0  0  0  0  0  0  0
    8.0801   -1.9923    0.0000 C   0  0  0  0  0  0  0  0  0  0  0  0
    6.9179   -2.6565    0.0000 C   0  0  0  0  0  0  0  0  0  0  0  0
    5.7557   -1.9923    0.0000 C   0  0  0  0  0  0  0  0  0  0  0  0
    4.6119   -2.6565    0.0000 C   0  0  0  0  0  0  0  0  0  0  0  0
    3.4682   -1.9923    0.0000 C   0  0  0  0  0  0  0  0  0  0  0  0
    2.3060   -2.6565    0.0000 C   0  0  0  0  0  0  0  0  0  0  0  0
    1.1438   -1.9923    0.0000 C   0  0  0  0  0  0  0  0  0  0  0  0
    0.0000   -2.6565    0.0000 C   0  0  0  0  0  0  0  0  0  0  0  0
  1  2  2  0  0  0  0 
  2  3  1  0  0  0  0 
  2  4  1  0  0  0  0 
  4  5  1  0  0  0  0 
  5  6  1  0  0  0  0 
  6  7  1  0  0  0  0 
  7  8  1  0  0  0  0 
  8  9  1  0  0  0  0 
  9 10  1  0  0  0  0 
 10 11  1  0  0  0  0 
 11 12  1  0  0  0  0 
 12 13  1  0  0  0  0 
 13 14  1  0  0  0  0 
 14 15  1  0  0  0  0 
 15 16  1  0  0  0  0 
 16 17  1  0  0  0  0 
 17 18  1  0  0  0  0 
 18 19  1  0  0  0  0 
M  END
> <Name>
HEPTADECANOIC ACID

> <Source>
DSSTox2DMolFile

> <Tox>
-7.206

> <CAS>
506-12-7

$$$$

  CDK

 22 21  0  0  0  0  0  0  0  0999 V2000
    0.0000    0.0000    0.0000 C   0  0  0  0  0  0  0  0  0  0  0  0
    1.5400   -0.1000    0.0000 C   0  0  0  0  0  0  0  0  0  0  0  0
   -0.6000   -0.6600   -1.2400 C   0  0  0  0  0  0  0  0  0  0  0  0
    2.1600    0.8800    1.0200 C   0  0  0  0  0  0  0  0  0  0  0  0
   -2.0800   -0.2800   -1.4400 C   0  0  0  0  0  0  0  0  0  0  0  0
    3.6800    1.0000    0.8200 C   0  0  0  0  0  0  0  0  0  0  0  0
   -2.6200   -0.6800   -2.8200 C   0  0  0  0  0  0  0  0  0  0  0  0
    4.2400    2.2800    1.4800 C   0  0  0  0  0  0  0  0  0  0  0  0
   -4.0000   -0.1000   -3.1000 C   0  0  0  0  0  0  0  0  0  0  0  0
    5.7400    2.4800    1.1800 C   0  0  0  0  0  0  0  0  0  0  0  0
   -4.4600   -0.3400   -4.5400 C   0  0  0  0  0  0  0  0  0  0  0  0
    6.2000    3.9200    1.4000 C   0  0  0  0  0  0  0  0  0  0  0  0
   -5.7400    0.4000   -4.8800 C   0  0  0  0  0  0  0  0  0  0  0  0
    7.7000    4.1000    1.2000 C   0  0  0  0  0  0  0  0  0  0  0  0
   -6.1600    0.2200   -6.3400 C   0  0  0  0  0  0  0  0  0  0  0  0
    8.1200    5.5600    1.2800 C   0  0  0  0  0  0  0  0  0  0  0  0
   -7.3800    1.0600   -6.7200 C   0  0  0  0  0  0  0  0  0  0  0  0
    9.6400    5.7400    1.1200 C   0  0  0  0  0  0  0  0  0  0  0  0
   10.0600    7.2000    1.0000 C   0  0  0  0  0  0  0  0  0  0  0  0
    9.7000    8.0000    2.2200 C   0  0  0  0  0  0  0  0  0  0  0  0
   10.2200    7.7800    3.3000 O   0  0  0  0  0  0  0  0  0  0  0  0
    8.7800    8.9400    2.0200 O   0  0  0  0  0  0  0  0  0  0  0  0
  1  2  1  0  0  0  0 
  1  3  1  0  0  0  0 
  2  4  1  0  0  0  0 
  3  5  1  0  0  0  0 
  4  6  1  0  0  0  0 
  5  7  1  0  0  0  0 
  6  8  1  0  0  0  0 
  7  9  1  0  0  0  0 
  8 10  1  0  0  0  0 
  9 11  1  0  0  0  0 
 10 12  1  0  0  0  0 
 11 13  1  0  0  0  0 
 12 14  1  0  0  0  0 
 13 15  1  0  0  0  0 
 14 16  1  0  0  0  0 
 15 17  1  0  0  0  0 
 16 18  1  0  0  0  0 
 18 19  1  0  0  0  0 
 19 20  1  0  0  0  0 
 20 21  2  0  0  0  0 
 20 22  1  0  0  0  0 
M  END
> <Name>
EICOSANOIC ACID

> <Source>
NIH3DMolFile

> <Tox>
-8.742

> <CAS>
506-30-9

$$$$

  CDK

  4  3  0  0  0  0  0  0  0  0999 V2000
    1.1440   -0.1198    0.0002 C   0  0  0  0  0  0  0  0  0  0  0  0
    1.6607   -1.1867   -0.0001 O   0  0  0  0  0  0  0  0  0  0  0  0
    1.6457    1.2693    0.0000 C   0  0  0  0  0  0  0  0  0  0  0  0
   -0.8184    0.0027    0.0000 Br  0  0  0  0  0  0  0  0  0  0  0  0
  1  2  2  0  0  0  0 
  1  3  1  0  0  0  0 
  1  4  1  0  0  0  0 
M  END
> <Name>
ACETYL BROMIDE

> <Source>
DougDB3DMolFile

> <Tox>
2.086

> <CAS>
506-96-7

$$$$

  CDK

  4  3  0  0  0  0  0  0  0  0999 V2000
    0.0000    0.0000    0.0000 C   0  0  0  0  0  0  0  0  0  0  0  0
    0.7928    0.5451    0.0000 C   0  0  0  0  0  0  0  0  0  0  0  0
    0.7928    1.5857    0.0000 O   0  0  0  0  0  0  0  0  0  0  0  0
    1.6848    0.0991    0.0000 I   0  0  0  0  0  0  0  0  0  0  0  0
  1  2  1  0  0  0  0 
  2  3  2  0  0  0  0 
  2  4  1  0  0  0  0 
M  END
> <Name>
ACETYL IODIDE

> <Source>
NIST2DMolFile

> <Tox>
1.511

> <CAS>
507-02-8

$$$$

  CDK

  5  4  0  0  0  0  0  0  0  0999 V2000
    0.4943    1.7299    0.0000 C   0  0  0  0  0  0  0  0  0  0  0  0
    0.9885    0.8897    0.0000 C   0  0  0  0  0  0  0  0  0  0  0  0
    0.4943    0.0000    0.0000 C   0  0  0  0  0  0  0  0  0  0  0  0
    1.9770    0.8897    0.0000 Br  0  0  0  0  0  0  0  0  0  0  0  0
    0.0000    0.6425    0.0000 C   0  0  0  0  0  0  0  0  0  0  0  0
  1  2  1  0  0  0  0 
  2  3  1  0  0  0  0 
  2  4  1  0  0  0  0 
  2  5  1  0  0  0  0 
M  END
> <Name>
2-BROMO-2-METHYLPROPANE

> <Source>
NIST2DMolFile

> <Tox>
2.130

> <CAS>
507-19-7

$$$$

  CDK

  5  4  0  0  0  0  0  0  0  0999 V2000
    2.6600   -1.3380    0.0000 C   0  0  0  0  0  0  0  0  0  0  0  0
    1.3380   -1.3380    0.0000 C   0  0  0  0  0  0  0  0  0  0  0  0
    1.3380   -2.6600    0.0000 C   0  0  0  0  0  0  0  0  0  0  0  0
    0.0000   -1.3380    0.0000 C   0  0  0  0  0  0  0  0  0  0  0  0
    1.3380   -0.0000    0.0000 Cl  0  0  0  0  0  0  0  0  0  0  0  0
  1  2  1  0  0  0  0 
  3  2  1  0  0  0  0 
  4  2  1  0  0  0  0 
  2  5  1  0  0  0  0 
M  END
> <Name>
T-BUTYL CHLORIDE

> <Source>
DSSTox2DMolFile

> <Tox>
2.480

> <CAS>
507-20-0

$$$$

  CDK

 10  9  0  0  0  0  0  0  0  0999 V2000
    1.0087    2.0174    0.0000 F   0  0  0  0  0  0  0  0  0  0  0  0
    1.0087    1.0087    0.0000 C   0  0  0  0  0  0  0  0  0  0  0  0
    1.0087    0.0000    0.0000 Cl  0  0  0  0  0  0  0  0  0  0  0  0
    0.0000    1.0087    0.0000 F   0  0  0  0  0  0  0  0  0  0  0  0
    2.0174    1.0087    0.0000 C   0  0  0  0  0  0  0  0  0  0  0  0
    3.0261    1.0087    0.0000 C   0  0  0  0  0  0  0  0  0  0  0  0
    2.0174    2.0174    0.0000 F   0  0  0  0  0  0  0  0  0  0  0  0
    2.0174    0.0504    0.0000 F   0  0  0  0  0  0  0  0  0  0  0  0
    3.5305    1.8661    0.0000 F   0  0  0  0  0  0  0  0  0  0  0  0
    3.5305    0.1513    0.0000 Cl  0  0  0  0  0  0  0  0  0  0  0  0
  1  2  1  0  0  0  0 
  2  3  1  0  0  0  0 
  2  4  1  0  0  0  0 
  2  5  1  0  0  0  0 
  5  6  1  0  0  0  0 
  5  7  1  0  0  0  0 
  5  8  1  0  0  0  0 
  6  9  1  0  0  0  0 
  6 10  1  0  0  0  0 
M  END
> <Name>
1,3-DICHLORO-1,2,2,3,3-PENTAFLUOROPROPANE

> <Source>
NIST2DMolFile

> <Tox>
2.456

> <CAS>
507-55-1

$$$$

  CDK

 11 12  0  0  0  0  0  0  0  0999 V2000
    3.1352    2.9574    0.0000 C   0  0  0  0  0  0  0  0  0  0  0  0
    2.4025    2.5532    0.0000 C   0  0  0  0  0  0  0  0  0  0  0  0
    2.7056    2.0984    0.0000 C   0  0  0  0  0  0  0  0  0  0  0  0
    1.9022    1.8407    0.0000 C   0  0  0  0  0  0  0  0  0  0  0  0
    3.1149    1.2848    0.0000 C   0  0  0  0  0  0  0  0  0  0  0  0
    0.9978    2.0176    0.0000 C   0  0  0  0  0  0  0  0  0  0  0  0
    2.4227    0.9564    0.0000 C   0  0  0  0  0  0  0  0  0  0  0  0
    1.3970    0.9767    0.0000 C   0  0  0  0  0  0  0  0  0  0  0  0
    0.0000    2.0904    0.0000 C   0  0  0  0  0  0  0  0  0  0  0  0
    0.1287    1.5224    0.0000 C   0  0  0  0  0  0  0  0  0  0  0  0
    3.2868    0.4613    0.0000 O   0  0  0  0  0  0  0  0  0  0  0  0
  1  2  1  0  0  0  0 
  3  1  1  0  0  0  0 
  2  4  1  0  0  0  0 
  5  3  1  0  0  0  0 
  3  6  1  0  0  0  0 
  4  6  1  0  0  0  0 
  4  7  1  0  0  0  0 
  4  8  1  0  0  0  0 
  7  5  1  0  0  0  0 
  6  9  1  0  0  0  0 
  6 10  1  0  0  0  0 
  7 11  1  6  0  0  0 
M  END
> <Name>
BORNEOL

> <Source>
NIST2DMolFile

> <Tox>
-1.299

> <CAS>
507-70-0

$$$$

  CDK

 13 12  0  0  0  0  0  0  0  0999 V2000
    0.8414   -0.0000    0.0000 O   0  0  0  0  0  0  0  0  0  0  0  0
    1.9939   -0.6660    0.0000 N   0  0  0  0  0  0  0  0  0  0  0  0
    1.9939   -1.9939    0.0000 C   0  0  0  0  0  0  0  0  0  0  0  0
    3.1463   -0.0000    0.0000 O   0  0  0  0  0  0  0  0  0  0  0  0
    3.3218   -1.9939    0.0000 N   0  0  0  0  0  0  0  0  0  0  0  0
    1.9939   -3.3218    0.0000 N   0  0  0  0  0  0  0  0  0  0  0  0
    0.6660   -1.9939    0.0000 N   0  0  0  0  0  0  0  0  0  0  0  0
    3.9878   -3.1463    0.0000 O   0  0  0  0  0  0  0  0  0  0  0  0
    3.9878   -0.8414    0.0000 O   0  0  0  0  0  0  0  0  0  0  0  0
    3.1463   -3.9878    0.0000 O   0  0  0  0  0  0  0  0  0  0  0  0
    0.8414   -3.9878    0.0000 O   0  0  0  0  0  0  0  0  0  0  0  0
    0.0000   -3.1463    0.0000 O   0  0  0  0  0  0  0  0  0  0  0  0
    0.0000   -0.8414    0.0000 O   0  0  0  0  0  0  0  0  0  0  0  0
  1  2  2  0  0  0  0 
  2  3  1  0  0  0  0 
  2  4  1  0  0  0  0 
  3  5  1  0  0  0  0 
  3  6  1  0  0  0  0 
  3  7  1  0  0  0  0 
  5  8  2  0  0  0  0 
  5  9  1  0  0  0  0 
  6 10  2  0  0  0  0 
  6 11  1  0  0  0  0 
  7 12  2  0  0  0  0 
  7 13  1  0  0  0  0 
M  CHG  1   2   1
M  CHG  1   4  -1
M  CHG  1   5   1
M  CHG  1   6   1
M  CHG  1   7   1
M  CHG  1   9  -1
M  CHG  1  11  -1
M  CHG  1  13  -1
M  END
> <Name>
TETRANITROMETHANE

> <Source>
DSSTox2DMolFile

> <Tox>
0.925

> <CAS>
509-14-8

$$$$

  CDK

  9  8  0  0  0  0  0  0  0  0999 V2000
    0.1769   -1.5522    0.5823 F   0  0  0  0  0  0  0  0  0  0  0  0
    0.2477   -0.3386   -0.0159 C   0  0  0  0  0  0  0  0  0  0  0  0
    0.3373   -0.5361   -1.3524 F   0  0  0  0  0  0  0  0  0  0  0  0
   -0.9329    0.3964    0.2796 O   0  0  0  0  0  0  0  0  0  0  0  0
    1.4618    0.4006    0.4792 C   0  0  0  0  0  0  0  0  0  0  0  0
   -2.1102   -0.2605   -0.1685 C   0  0  0  0  0  0  0  0  0  0  0  0
    1.5538    1.5996   -0.1473 F   0  0  0  0  0  0  0  0  0  0  0  0
    2.5788   -0.2966    0.1573 F   0  0  0  0  0  0  0  0  0  0  0  0
   -3.3132    0.5875    0.1857 C   0  0  0  0  0  0  0  0  0  0  0  0
  1  2  1  0  0  0  0 
  3  2  1  0  0  0  0 
  4  2  1  0  0  0  0 
  2  5  1  0  0  0  0 
  4  6  1  0  0  0  0 
  7  5  1  0  0  0  0 
  8  5  1  0  0  0  0 
  6  9  1  0  0  0  0 
M  END
> <Name>
ETHYL 1,1,2,2-TETRAFLUOROETHYL ETHER

> <Source>
Chemidplus3DMolFile

> <Tox>
2.338

> <CAS>
512-51-6

$$$$

  CDK

  8  7  0  0  0  0  0  0  0  0999 V2000
    3.3237   -1.9950    0.0000 O   0  0  0  0  0  0  0  0  0  0  0  0
    1.9950   -1.9950    0.0000 P   0  0  0  0  0  0  0  0  0  0  0  0
    1.9950   -3.3237    0.0000 O   0  0  0  0  0  0  0  0  0  0  0  0
    0.6663   -1.9950    0.0000 O   0  0  0  0  0  0  0  0  0  0  0  0
    1.9950   -0.6663    0.0000 O   0  0  0  0  0  0  0  0  0  0  0  0
    3.1481   -3.9900    0.0000 C   0  0  0  0  0  0  0  0  0  0  0  0
    0.0000   -3.1481    0.0000 C   0  0  0  0  0  0  0  0  0  0  0  0
    3.1481   -0.0000    0.0000 C   0  0  0  0  0  0  0  0  0  0  0  0
  1  2  2  0  0  0  0 
  2  3  1  0  0  0  0 
  2  4  1  0  0  0  0 
  2  5  1  0  0  0  0 
  3  6  1  0  0  0  0 
  4  7  1  0  0  0  0 
  5  8  1  0  0  0  0 
M  END
> <Name>
TRIMETHYL PHOSPHATE

> <Source>
DSSTox2DMolFile

> <Tox>
-0.071

> <CAS>
512-56-1

$$$$

  CDK

  5  4  0  0  0  0  0  0  0  0999 V2000
    1.7492    1.4993    0.0000 C   0  0  0  0  0  0  0  0  0  0  0  0
    0.8496    0.9995    0.0000 C   0  0  0  0  0  0  0  0  0  0  0  0
    2.5988    0.9995    0.0000 Br  0  0  0  0  0  0  0  0  0  0  0  0
    0.8496    0.0000    0.0000 Br  0  0  0  0  0  0  0  0  0  0  0  0
    0.0000    1.4993    0.0000 C   0  0  0  0  0  0  0  0  0  0  0  0
  1  2  1  0  0  0  0 
  1  3  1  0  0  0  0 
  2  4  1  0  0  0  0 
  2  5  2  0  0  0  0 
M  END
> <Name>
2,3-DIBROMO-1-PROPENE

> <Source>
NIST2DMolFile

> <Tox>
0.880

> <CAS>
513-31-5

$$$$

  CDK

  5  4  0  0  0  0  0  0  0  0999 V2000
    0.0000    0.0000    0.0000 C   0  0  0  0  0  0  0  0  0  0  0  0
    0.8996    0.4998    0.0000 C   0  0  0  0  0  0  0  0  0  0  0  0
    1.7492    0.0000    0.0000 C   0  0  0  0  0  0  0  0  0  0  0  0
    0.8996    1.4993    0.0000 C   0  0  0  0  0  0  0  0  0  0  0  0
    2.5988    0.4998    0.0000 Cl  0  0  0  0  0  0  0  0  0  0  0  0
  1  2  1  0  0  0  0 
  2  3  1  0  0  0  0 
  2  4  1  0  0  0  0 
  3  5  1  0  0  0  0 
M  END
> <Name>
ISOBUTYL CHLORIDE

> <Source>
NIST2DMolFile

> <Tox>
2.176

> <CAS>
513-36-0

$$$$

  CDK

  5  4  0  0  0  0  0  0  0  0999 V2000
    0.9161    1.0179    0.0000 C   0  0  0  0  0  0  0  0  0  0  0  0
    0.0000    1.4759    0.0000 C   0  0  0  0  0  0  0  0  0  0  0  0
    1.7813    1.4759    0.0000 C   0  0  0  0  0  0  0  0  0  0  0  0
    0.9161    0.0000    0.0000 C   0  0  0  0  0  0  0  0  0  0  0  0
    2.6465    1.0179    0.0000 I   0  0  0  0  0  0  0  0  0  0  0  0
  1  2  1  0  0  0  0 
  1  3  1  0  0  0  0 
  1  4  1  0  0  0  0 
  3  5  1  0  0  0  0 
M  END
> <Name>
1-IODO-2-METHYLPROPANE

> <Source>
NIST2DMolFile

> <Tox>
1.196

> <CAS>
513-38-2

$$$$

  CDK

  5  4  0  0  0  0  0  0  0  0999 V2000
    1.7492    1.4993    0.0000 C   0  0  0  0  0  0  0  0  0  0  0  0
    0.8496    0.9995    0.0000 C   0  0  0  0  0  0  0  0  0  0  0  0
    2.5988    0.9995    0.0000 C   0  0  0  0  0  0  0  0  0  0  0  0
    0.8496    0.0000    0.0000 C   0  0  0  0  0  0  0  0  0  0  0  0
    0.0000    1.4993    0.0000 I   0  0  0  0  0  0  0  0  0  0  0  0
  1  2  1  0  0  0  0 
  1  3  1  0  0  0  0 
  2  4  1  0  0  0  0 
  2  5  1  0  0  0  0 
M  END
> <Name>
2-IODOBUTANE

> <Source>
NIST2DMolFile

> <Tox>
1.233

> <CAS>
513-48-4

$$$$

  CDK

  6  5  0  0  0  0  0  0  0  0999 V2000
    3.3250   -1.1509    0.0000 C   0  0  0  0  0  0  0  0  0  0  0  0
    1.9943   -1.1509    0.0000 C   0  0  0  0  0  0  0  0  0  0  0  0
    1.3307   -0.0000    0.0000 C   0  0  0  0  0  0  0  0  0  0  0  0
    1.3307   -2.3053    0.0000 C   0  0  0  0  0  0  0  0  0  0  0  0
    1.9943   -3.4563    0.0000 C   0  0  0  0  0  0  0  0  0  0  0  0
    0.0000   -2.3053    0.0000 C   0  0  0  0  0  0  0  0  0  0  0  0
  1  2  2  0  0  0  0 
  2  3  1  0  0  0  0 
  2  4  1  0  0  0  0 
  4  5  1  0  0  0  0 
  4  6  2  0  0  0  0 
M  END
> <Name>
2,3-DIMETHYL-1,3-BUTADIENE

> <Source>
DSSTox2DMolFile

> <Tox>
2.182

> <CAS>
513-81-5

$$$$

  CDK

  6  5  0  0  0  0  0  0  0  0999 V2000
   -0.9318    1.2416   -0.7862 C   0  0  0  0  0  0  0  0  0  0  0  0
   -0.7083    0.3115    0.4025 C   0  0  0  0  0  0  0  0  0  0  0  0
    0.7020   -0.3481    0.3709 C   0  0  0  0  0  0  0  0  0  0  0  0
   -1.6479   -0.7483    0.4465 O   0  0  0  0  0  0  0  0  0  0  0  0
    1.7750    0.7283    0.5097 C   0  0  0  0  0  0  0  0  0  0  0  0
    0.9598   -1.0373   -0.8362 O   0  0  0  0  0  0  0  0  0  0  0  0
  1  2  1  0  0  0  0 
  2  3  1  0  0  0  0 
  2  4  1  0  0  0  0 
  3  5  1  0  0  0  0 
  3  6  1  0  0  0  0 
M  END
> <Name>
2,3-BUTANEDIOL

> <Source>
DougDB3DMolFile

> <Tox>
-0.614

> <CAS>
513-85-9

$$$$

  CDK

  6  5  0  0  0  0  0  0  0  0999 V2000
    1.3307   -0.0000    0.0000 C   0  0  0  0  0  0  0  0  0  0  0  0
    1.9943   -1.1509    0.0000 C   0  0  0  0  0  0  0  0  0  0  0  0
    1.3307   -2.3053    0.0000 C   0  0  0  0  0  0  0  0  0  0  0  0
    3.3250   -1.1509    0.0000 O   0  0  0  0  0  0  0  0  0  0  0  0
    1.9943   -3.4563    0.0000 Cl  0  0  0  0  0  0  0  0  0  0  0  0
    0.0000   -2.3053    0.0000 Cl  0  0  0  0  0  0  0  0  0  0  0  0
  1  2  1  0  0  0  0 
  2  3  1  0  0  0  0 
  2  4  2  0  0  0  0 
  3  5  1  0  0  0  0 
  3  6  1  0  0  0  0 
M  END
> <Name>
1,1-DICHLOROPROPANONE

> <Source>
DSSTox2DMolFile

> <Tox>
1.431

> <CAS>
513-88-2

$$$$

  CDK

  9  8  0  0  0  0  0  0  0  0999 V2000
    1.7167    1.3633    0.0000 C   0  0  0  0  0  0  0  0  0  0  0  0
    2.5751    0.8584    0.0000 O   0  0  0  0  0  0  0  0  0  0  0  0
    1.7167    2.3731    0.0000 O   0  0  0  0  0  0  0  0  0  0  0  0
    0.8584    0.8584    0.0000 C   0  0  0  0  0  0  0  0  0  0  0  0
    3.4334    1.3633    0.0000 C   0  0  0  0  0  0  0  0  0  0  0  0
    0.0000    0.3534    0.0000 Cl  0  0  0  0  0  0  0  0  0  0  0  0
    1.3128    0.0000    0.0000 Cl  0  0  0  0  0  0  0  0  0  0  0  0
    0.3534    1.7167    0.0000 Cl  0  0  0  0  0  0  0  0  0  0  0  0
    4.3423    0.8584    0.0000 C   0  0  0  0  0  0  0  0  0  0  0  0
  1  2  1  0  0  0  0 
  1  3  2  0  0  0  0 
  1  4  1  0  0  0  0 
  2  5  1  0  0  0  0 
  4  6  1  0  0  0  0 
  4  7  1  0  0  0  0 
  4  8  1  0  0  0  0 
  5  9  1  0  0  0  0 
M  END
> <Name>
ETHYL TRICHLOROACETATE

> <Source>
NIST2DMolFile

> <Tox>
0.581

> <CAS>
515-84-4

$$$$

  CDK

 19 21  0  0  0  0  0  0  0  0999 V2000
    4.1756    2.5233    4.6473 C   0  0  0  0  0  0  0  0  0  0  0  0
    4.8455    2.0224    3.3921 C   0  0  0  0  0  0  0  0  0  0  0  0
    3.2747    3.7121    4.4203 C   0  0  0  0  0  0  0  0  0  0  0  0
    5.1669    2.8257    5.7451 C   0  0  0  0  0  0  0  0  0  0  0  0
    5.9570    1.1805    3.4916 C   0  0  0  0  0  0  0  0  0  0  0  0
    4.3344    2.3206    2.1279 C   0  0  0  0  0  0  0  0  0  0  0  0
    1.9133    3.6035    4.7120 C   0  0  0  0  0  0  0  0  0  0  0  0
    3.7725    4.9231    3.9340 C   0  0  0  0  0  0  0  0  0  0  0  0
    5.0751    2.1430    6.9596 C   0  0  0  0  0  0  0  0  0  0  0  0
    6.1737    3.7780    5.5724 C   0  0  0  0  0  0  0  0  0  0  0  0
    6.5487    0.6562    2.3492 C   0  0  0  0  0  0  0  0  0  0  0  0
    4.9276    1.7941    0.9858 C   0  0  0  0  0  0  0  0  0  0  0  0
    1.0657    4.6888    4.5177 C   0  0  0  0  0  0  0  0  0  0  0  0
    2.9235    6.0055    3.7394 C   0  0  0  0  0  0  0  0  0  0  0  0
    5.9799    2.4071    7.9822 C   0  0  0  0  0  0  0  0  0  0  0  0
    7.0777    4.0384    6.5948 C   0  0  0  0  0  0  0  0  0  0  0  0
    6.0357    0.9619    1.0929 C   0  0  0  0  0  0  0  0  0  0  0  0
    1.5681    5.8900    4.0300 C   0  0  0  0  0  0  0  0  0  0  0  0
    6.9831    3.3525    7.8012 C   0  0  0  0  0  0  0  0  0  0  0  0
  1  2  1  0  0  0  0 
  1  3  1  0  0  0  0 
  1  4  1  0  0  0  0 
  2  5  2  0  0  0  0 
  6  2  1  0  0  0  0 
  3  7  2  0  0  0  0 
  8  3  1  0  0  0  0 
  9  4  2  0  0  0  0 
  4 10  1  0  0  0  0 
  5 11  1  0  0  0  0 
 12  6  2  0  0  0  0 
  7 13  1  0  0  0  0 
 14  8  2  0  0  0  0 
 15  9  1  0  0  0  0 
 10 16  2  0  0  0  0 
 11 17  2  0  0  0  0 
 17 12  1  0  0  0  0 
 13 18  2  0  0  0  0 
 18 14  1  0  0  0  0 
 19 15  2  0  0  0  0 
 16 19  1  0  0  0  0 
M  END
> <Name>
TRIPHENYLMETHANE

> <Source>
NIST3DMolFile

> <Tox>
-5.253

> <CAS>
519-73-3

$$$$

  CDK

 12 12  0  0  0  0  0  0  0  0999 V2000
    1.9922   -4.6067    0.0000 O   0  0  0  0  0  0  0  0  0  0  0  0
    2.6563   -3.4580    0.0000 C   0  0  0  0  0  0  0  0  0  0  0  0
    1.9922   -2.3033    0.0000 C   0  0  0  0  0  0  0  0  0  0  0  0
    3.9905   -3.4580    0.0000 C   0  0  0  0  0  0  0  0  0  0  0  0
    2.6563   -1.1547    0.0000 C   0  0  0  0  0  0  0  0  0  0  0  0
    0.6641   -2.3033    0.0000 C   0  0  0  0  0  0  0  0  0  0  0  0
    4.6546   -2.3033    0.0000 C   0  0  0  0  0  0  0  0  0  0  0  0
    1.9922   -0.0000    0.0000 O   0  0  0  0  0  0  0  0  0  0  0  0
    3.9905   -1.1547    0.0000 O   0  0  0  0  0  0  0  0  0  0  0  0
    0.0000   -3.4580    0.0000 O   0  0  0  0  0  0  0  0  0  0  0  0
    0.0000   -1.1547    0.0000 C   0  0  0  0  0  0  0  0  0  0  0  0
    5.9827   -2.3033    0.0000 C   0  0  0  0  0  0  0  0  0  0  0  0
  1  2  2  0  0  0  0 
  2  3  1  0  0  0  0 
  2  4  1  0  0  0  0 
  3  5  1  0  0  0  0 
  3  6  1  0  0  0  0 
  7  4  2  0  0  0  0 
  5  8  2  0  0  0  0 
  5  9  1  0  0  0  0 
  6 10  2  0  0  0  0 
  6 11  1  0  0  0  0 
  9  7  1  0  0  0  0 
  7 12  1  0  0  0  0 
M  END
> <Name>
DEHYDROACETIC ACID

> <Source>
DSSTox2DMolFile

> <Tox>
-2.903

> <CAS>
520-45-6

$$$$

  CDK

  9  9  0  0  0  0  0  0  0  0999 V2000
    1.2115    0.0045   -0.0011 C   0  0  0  0  0  0  0  0  0  0  0  0
    0.0004    0.7145   -0.0113 C   0  0  0  0  0  0  0  0  0  0  0  0
    1.2002   -1.3911   -0.0016 C   0  0  0  0  0  0  0  0  0  0  0  0
    2.5223    0.7079    0.0152 C   0  0  0  0  0  0  0  0  0  0  0  0
   -1.2119    0.0067   -0.0012 C   0  0  0  0  0  0  0  0  0  0  0  0
    0.0031    2.2023   -0.0141 C   0  0  0  0  0  0  0  0  0  0  0  0
   -0.0018   -2.0855   -0.0060 C   0  0  0  0  0  0  0  0  0  0  0  0
   -1.2025   -1.3890   -0.0017 C   0  0  0  0  0  0  0  0  0  0  0  0
   -2.5220    0.7117    0.0153 C   0  0  0  0  0  0  0  0  0  0  0  0
  1  2  1  0  0  0  0 
  1  3  2  0  0  0  0 
  1  4  1  0  0  0  0 
  2  5  2  0  0  0  0 
  2  6  1  0  0  0  0 
  7  3  1  0  0  0  0 
  5  8  1  0  0  0  0 
  5  9  1  0  0  0  0 
  8  7  2  0  0  0  0 
M  END
> <Name>
1,2,3-TRIMETHYLBENZENE

> <Source>
DougDB3DMolFile

> <Tox>
0.228

> <CAS>
526-73-8

$$$$

  CDK

  9  9  0  0  0  0  0  0  0  0999 V2000
    0.0000   -2.3037    0.0000 C   0  0  0  0  0  0  0  0  0  0  0  0
    1.3315   -2.3037    0.0000 C   0  0  0  0  0  0  0  0  0  0  0  0
    1.9950   -1.1518    0.0000 C   0  0  0  0  0  0  0  0  0  0  0  0
    1.9950   -3.4555    0.0000 C   0  0  0  0  0  0  0  0  0  0  0  0
    1.3315   -0.0000    0.0000 C   0  0  0  0  0  0  0  0  0  0  0  0
    3.3265   -1.1518    0.0000 C   0  0  0  0  0  0  0  0  0  0  0  0
    3.3265   -3.4555    0.0000 C   0  0  0  0  0  0  0  0  0  0  0  0
    1.3315   -4.6073    0.0000 O   0  0  0  0  0  0  0  0  0  0  0  0
    3.9899   -2.3037    0.0000 C   0  0  0  0  0  0  0  0  0  0  0  0
  1  2  1  0  0  0  0 
  2  3  2  0  0  0  0 
  2  4  1  0  0  0  0 
  3  5  1  0  0  0  0 
  3  6  1  0  0  0  0 
  7  4  2  0  0  0  0 
  4  8  1  0  0  0  0 
  6  9  2  0  0  0  0 
  9  7  1  0  0  0  0 
M  END
> <Name>
2,3-DIMETHYLPHENOL

> <Source>
DSSTox2DMolFile

> <Tox>
-1.051

> <CAS>
526-75-0

$$$$

  CDK

 10 10  0  0  0  0  0  0  0  0999 V2000
    5.3182   -2.3028    0.0000 C   0  0  0  0  0  0  0  0  0  0  0  0
    3.9887   -2.3028    0.0000 C   0  0  0  0  0  0  0  0  0  0  0  0
    3.3239   -3.4568    0.0000 C   0  0  0  0  0  0  0  0  0  0  0  0
    3.3239   -1.1487    0.0000 C   0  0  0  0  0  0  0  0  0  0  0  0
    3.9887   -4.6056    0.0000 C   0  0  0  0  0  0  0  0  0  0  0  0
    1.9943   -3.4568    0.0000 C   0  0  0  0  0  0  0  0  0  0  0  0
    1.9943   -1.1487    0.0000 C   0  0  0  0  0  0  0  0  0  0  0  0
    3.9887   -0.0000    0.0000 C   0  0  0  0  0  0  0  0  0  0  0  0
    1.3296   -2.3028    0.0000 C   0  0  0  0  0  0  0  0  0  0  0  0
    0.0000   -2.3028    0.0000 C   0  0  0  0  0  0  0  0  0  0  0  0
  1  2  1  0  0  0  0 
  2  3  2  0  0  0  0 
  2  4  1  0  0  0  0 
  3  5  1  0  0  0  0 
  3  6  1  0  0  0  0 
  7  4  2  0  0  0  0 
  4  8  1  0  0  0  0 
  6  9  2  0  0  0  0 
  9  7  1  0  0  0  0 
  9 10  1  0  0  0  0 
M  END
> <Name>
1,2,3,5-TETRAMETHYLBENZENE

> <Source>
DSSTox2DMolFile

> <Tox>
-0.303

> <CAS>
527-53-7

$$$$

  CDK

 10 10  0  0  0  0  0  0  0  0999 V2000
    5.3182   -2.3028    0.0000 O   0  0  0  0  0  0  0  0  0  0  0  0
    3.9887   -2.3028    0.0000 C   0  0  0  0  0  0  0  0  0  0  0  0
    3.3239   -3.4568    0.0000 C   0  0  0  0  0  0  0  0  0  0  0  0
    3.3239   -1.1487    0.0000 C   0  0  0  0  0  0  0  0  0  0  0  0
    3.9887   -4.6056    0.0000 C   0  0  0  0  0  0  0  0  0  0  0  0
    1.9943   -3.4568    0.0000 C   0  0  0  0  0  0  0  0  0  0  0  0
    1.9943   -1.1487    0.0000 C   0  0  0  0  0  0  0  0  0  0  0  0
    3.9887   -0.0000    0.0000 C   0  0  0  0  0  0  0  0  0  0  0  0
    1.3296   -2.3028    0.0000 C   0  0  0  0  0  0  0  0  0  0  0  0
    0.0000   -2.3028    0.0000 C   0  0  0  0  0  0  0  0  0  0  0  0
  1  2  1  0  0  0  0 
  2  3  2  0  0  0  0 
  2  4  1  0  0  0  0 
  3  5  1  0  0  0  0 
  3  6  1  0  0  0  0 
  7  4  2  0  0  0  0 
  4  8  1  0  0  0  0 
  6  9  2  0  0  0  0 
  9  7  1  0  0  0  0 
  9 10  1  0  0  0  0 
M  END
> <Name>
2,4,6-TRIMETHYLPHENOL

> <Source>
DSSTox2DMolFile

> <Tox>
-1.759

> <CAS>
527-60-6

$$$$

  CDK

 10 10  0  0  0  0  0  0  0  0999 V2000
    0.3653    0.9145    0.0002 C   0  0  0  0  0  0  0  0  0  0  0  0
   -0.1326   -0.3975    0.0003 C   0  0  0  0  0  0  0  0  0  0  0  0
    1.7481    1.1239    0.0003 C   0  0  0  0  0  0  0  0  0  0  0  0
   -0.5201    2.1100   -0.0002 C   0  0  0  0  0  0  0  0  0  0  0  0
    0.7742   -1.4634   -0.0002 C   0  0  0  0  0  0  0  0  0  0  0  0
   -1.5970   -0.7585    0.0000 C   0  0  0  0  0  0  0  0  0  0  0  0
    2.6346    0.0562    0.0001 C   0  0  0  0  0  0  0  0  0  0  0  0
    2.1448   -1.2445   -0.0002 C   0  0  0  0  0  0  0  0  0  0  0  0
   -2.2981   -0.2692    1.2577 C   0  0  0  0  0  0  0  0  0  0  0  0
   -2.2975   -0.2689   -1.2579 C   0  0  0  0  0  0  0  0  0  0  0  0
  1  2  1  0  0  0  0 
  1  3  2  0  0  0  0 
  1  4  1  0  0  0  0 
  2  5  2  0  0  0  0 
  2  6  1  0  0  0  0 
  7  3  1  0  0  0  0 
  5  8  1  0  0  0  0 
  6  9  1  0  0  0  0 
  6 10  1  0  0  0  0 
  8  7  2  0  0  0  0 
M  END
> <Name>
1-METHYL-2-ISOPROPYLBENZENE

> <Source>
DougDB3DMolFile

> <Tox>
0.176

> <CAS>
527-84-4

$$$$

  CDK

 12 12  0  0  0  0  0  0  0  0999 V2000
    3.3231   -0.0000    0.0000 O   0  0  0  0  0  0  0  0  0  0  0  0
    3.9877   -1.1485    0.0000 N   0  0  0  0  0  0  0  0  0  0  0  0
    5.3170   -1.1485    0.0000 O   0  0  0  0  0  0  0  0  0  0  0  0
    3.3231   -2.3076    0.0000 C   0  0  0  0  0  0  0  0  0  0  0  0
    1.9939   -2.3076    0.0000 C   0  0  0  0  0  0  0  0  0  0  0  0
    3.9877   -3.4507    0.0000 C   0  0  0  0  0  0  0  0  0  0  0  0
    1.3292   -3.4507    0.0000 C   0  0  0  0  0  0  0  0  0  0  0  0
    1.3292   -1.1485    0.0000 N   0  0  0  0  0  0  0  0  0  0  0  0
    3.3231   -4.6098    0.0000 C   0  0  0  0  0  0  0  0  0  0  0  0
    1.9939   -4.6098    0.0000 C   0  0  0  0  0  0  0  0  0  0  0  0
    0.0000   -1.1485    0.0000 O   0  0  0  0  0  0  0  0  0  0  0  0
    1.9939   -0.0000    0.0000 O   0  0  0  0  0  0  0  0  0  0  0  0
  1  2  1  0  0  0  0 
  2  3  2  0  0  0  0 
  2  4  1  0  0  0  0 
  5  4  2  0  0  0  0 
  6  4  1  0  0  0  0 
  7  5  1  0  0  0  0 
  5  8  1  0  0  0  0 
  9  6  2  0  0  0  0 
  7 10  2  0  0  0  0 
  8 11  2  0  0  0  0 
  8 12  1  0  0  0  0 
 10  9  1  0  0  0  0 
M  CHG  1   1  -1
M  CHG  1   2   1
M  CHG  1   8   1
M  CHG  1  12  -1
M  END
> <Name>
O-DINITROBENZENE

> <Source>
DSSTox2DMolFile

> <Tox>
-4.342

> <CAS>
528-29-0

$$$$

  CDK

  9  9  0  0  0  0  0  0  0  0999 V2000
    2.6595   -2.3031    0.0000 C   0  0  0  0  0  0  0  0  0  0  0  0
    3.9893   -2.3031    0.0000 C   0  0  0  0  0  0  0  0  0  0  0  0
    1.9946   -3.4574    0.0000 C   0  0  0  0  0  0  0  0  0  0  0  0
    1.9946   -1.1542    0.0000 C   0  0  0  0  0  0  0  0  0  0  0  0
    5.3190   -2.3031    0.0000 N   0  0  0  0  0  0  0  0  0  0  0  0
    0.6649   -3.4574    0.0000 C   0  0  0  0  0  0  0  0  0  0  0  0
    0.6649   -1.1542    0.0000 C   0  0  0  0  0  0  0  0  0  0  0  0
    2.6595   -0.0000    0.0000 C   0  0  0  0  0  0  0  0  0  0  0  0
    0.0000   -2.3031    0.0000 C   0  0  0  0  0  0  0  0  0  0  0  0
  1  2  1  0  0  0  0 
  1  3  2  0  0  0  0 
  1  4  1  0  0  0  0 
  2  5  3  0  0  0  0 
  3  6  1  0  0  0  0 
  7  4  2  0  0  0  0 
  4  8  1  0  0  0  0 
  6  9  2  0  0  0  0 
  9  7  1  0  0  0  0 
M  END
> <Name>
2-METHYLBENZONITRILE

> <Source>
DSSTox2DMolFile

> <Tox>
-0.349

> <CAS>
529-19-1

$$$$

  CDK

 14 15  0  0  0  0  0  0  0  0999 V2000
    4.5281    4.7367    1.6146 C   0  0  0  0  0  0  0  0  0  0  0  0
    4.5488    3.4018    1.6747 C   0  0  0  0  0  0  0  0  0  0  0  0
    3.3031    2.6189    1.7231 C   0  0  0  0  0  0  0  0  0  0  0  0
    5.8183    2.6572    1.6981 C   0  0  0  0  0  0  0  0  0  0  0  0
    2.3031    2.9440    2.6427 C   0  0  0  0  0  0  0  0  0  0  0  0
    3.1083    1.5564    0.8373 C   0  0  0  0  0  0  0  0  0  0  0  0
    6.0392    1.6795    2.6715 C   0  0  0  0  0  0  0  0  0  0  0  0
    6.8163    2.9369    0.7614 C   0  0  0  0  0  0  0  0  0  0  0  0
    1.1227    2.2103    2.6759 C   0  0  0  0  0  0  0  0  0  0  0  0
    1.9236    0.8300    0.8719 C   0  0  0  0  0  0  0  0  0  0  0  0
    7.2476    0.9937    2.7069 C   0  0  0  0  0  0  0  0  0  0  0  0
    8.0206    2.2435    0.7989 C   0  0  0  0  0  0  0  0  0  0  0  0
    0.9311    1.1545    1.7912 C   0  0  0  0  0  0  0  0  0  0  0  0
    8.2385    1.2734    1.7715 C   0  0  0  0  0  0  0  0  0  0  0  0
  1  2  2  0  0  0  0 
  2  3  1  0  0  0  0 
  2  4  1  0  0  0  0 
  5  3  2  0  0  0  0 
  3  6  1  0  0  0  0 
  7  4  2  0  0  0  0 
  4  8  1  0  0  0  0 
  9  5  1  0  0  0  0 
  6 10  2  0  0  0  0 
 11  7  1  0  0  0  0 
  8 12  2  0  0  0  0 
 13  9  2  0  0  0  0 
 10 13  1  0  0  0  0 
 14 11  2  0  0  0  0 
 12 14  1  0  0  0  0 
M  END
> <Name>
1,1-DIPHENYLETHYLENE

> <Source>
NIST3DMolFile

> <Tox>
-1.883

> <CAS>
530-48-3

$$$$

  CDK

 14 15  0  0  0  0  0  0  0  0999 V2000
    1.8312   -0.9350    4.0935 N   0  0  0  0  0  0  0  0  0  0  0  0
    0.8906   -1.7829    4.7287 N   0  0  0  0  0  0  0  0  0  0  0  0
    1.8497   -0.9689    2.6836 C   0  0  0  0  0  0  0  0  0  0  0  0
    2.6905   -0.1739    4.9689 C   0  0  0  0  0  0  0  0  0  0  0  0
    2.2651    0.1519    1.9646 C   0  0  0  0  0  0  0  0  0  0  0  0
    1.4536   -2.1232    2.0083 C   0  0  0  0  0  0  0  0  0  0  0  0
    3.9748    0.1102    4.5562 C   0  0  0  0  0  0  0  0  0  0  0  0
    2.1968    0.2433    6.1865 C   0  0  0  0  0  0  0  0  0  0  0  0
    2.2843    0.1184    0.5702 C   0  0  0  0  0  0  0  0  0  0  0  0
    1.4729   -2.1569    0.6139 C   0  0  0  0  0  0  0  0  0  0  0  0
    4.8051    0.8464    5.4015 C   0  0  0  0  0  0  0  0  0  0  0  0
    3.0270    0.9795    7.0317 C   0  0  0  0  0  0  0  0  0  0  0  0
    1.8882   -1.0360   -0.1050 C   0  0  0  0  0  0  0  0  0  0  0  0
    4.3311    1.2810    6.6392 C   0  0  0  0  0  0  0  0  0  0  0  0
  1  2  1  0  0  0  0 
  1  3  1  0  0  0  0 
  1  4  1  0  0  0  0 
  3  5  2  0  0  0  0 
  3  6  1  0  0  0  0 
  4  7  2  0  0  0  0 
  4  8  1  0  0  0  0 
  5  9  1  0  0  0  0 
  6 10  2  0  0  0  0 
  7 11  1  0  0  0  0 
  8 12  2  0  0  0  0 
  9 13  2  0  0  0  0 
 10 13  1  0  0  0  0 
 11 14  2  0  0  0  0 
 12 14  1  0  0  0  0 
M  END
> <Name>
HYDRAZINE, 1,1-DIPHENYL-

> <Source>
Chemidplus3DMolFile

> <Tox>
-3.309

> <CAS>
530-50-7

$$$$

  CDK

 16 16  0  0  0  0  0  0  0  0999 V2000
    3.9731    1.7383    0.0000 C   0  0  0  0  0  0  0  0  0  0  0  0
    2.9799    1.7383    0.0000 O   0  0  0  0  0  0  0  0  0  0  0  0
    4.4698    0.8443    0.0000 O   0  0  0  0  0  0  0  0  0  0  0  0
    4.4698    2.5825    0.0000 C   0  0  0  0  0  0  0  0  0  0  0  0
    2.4832    0.8443    0.0000 C   0  0  0  0  0  0  0  0  0  0  0  0
    5.4631    2.5825    0.0000 O   0  0  0  0  0  0  0  0  0  0  0  0
    3.9731    3.4268    0.0000 C   0  0  0  0  0  0  0  0  0  0  0  0
    1.4899    0.8443    0.0000 C   0  0  0  0  0  0  0  0  0  0  0  0
    5.9597    3.4268    0.0000 C   0  0  0  0  0  0  0  0  0  0  0  0
    4.4698    4.3208    0.0000 C   0  0  0  0  0  0  0  0  0  0  0  0
    0.9933    0.0000    0.0000 C   0  0  0  0  0  0  0  0  0  0  0  0
    6.8537    2.9302    0.0000 C   0  0  0  0  0  0  0  0  0  0  0  0
    6.8537    3.9235    0.0000 C   0  0  0  0  0  0  0  0  0  0  0  0
    5.4631    4.3208    0.0000 C   0  0  0  0  0  0  0  0  0  0  0  0
    3.9731    5.1651    0.0000 O   0  0  0  0  0  0  0  0  0  0  0  0
    0.0000    0.0000    0.0000 C   0  0  0  0  0  0  0  0  0  0  0  0
  1  2  1  0  0  0  0 
  1  3  2  0  0  0  0 
  1  4  1  0  0  0  0 
  2  5  1  0  0  0  0 
  4  6  1  0  0  0  0 
  7  4  2  0  0  0  0 
  5  8  1  0  0  0  0 
  6  9  1  0  0  0  0 
 10  7  1  0  0  0  0 
  8 11  1  0  0  0  0 
  9 12  1  0  0  0  0 
  9 13  1  0  0  0  0 
  9 14  1  0  0  0  0 
 14 10  1  0  0  0  0 
 10 15  2  0  0  0  0 
 11 16  1  0  0  0  0 
M  END
> <Name>
INDALONE

> <Source>
NIST2DMolFile

> <Tox>
-3.523

> <CAS>
532-34-3

$$$$

  CDK

 15 15  0  0  0  0  0  0  0  0999 V2000
   -2.6961   -0.0577    0.1010 C   0  0  0  0  0  0  0  0  0  0  0  0
   -1.8444    0.2625    1.3274 C   0  0  0  0  0  0  0  0  0  0  0  0
   -2.3258   -0.3065   -1.0263 O   0  0  0  0  0  0  0  0  0  0  0  0
   -4.0285   -0.0528    0.4041 O   0  0  0  0  0  0  0  0  0  0  0  0
   -0.7010    1.0222    1.0035 O   0  0  0  0  0  0  0  0  0  0  0  0
   -4.9857   -0.3576   -0.6034 C   0  0  0  0  0  0  0  0  0  0  0  0
    0.4473    0.3313    0.6583 C   0  0  0  0  0  0  0  0  0  0  0  0
   -5.1699   -1.8500   -0.7991 C   0  0  0  0  0  0  0  0  0  0  0  0
    1.4152    1.0829   -0.0289 C   0  0  0  0  0  0  0  0  0  0  0  0
    0.7041   -0.9984    1.0101 C   0  0  0  0  0  0  0  0  0  0  0  0
    2.6337    0.4981   -0.3613 C   0  0  0  0  0  0  0  0  0  0  0  0
    1.1307    2.6835   -0.4572 Cl  0  0  0  0  0  0  0  0  0  0  0  0
    1.9201   -1.5768    0.6728 C   0  0  0  0  0  0  0  0  0  0  0  0
    2.8760   -0.8266   -0.0088 C   0  0  0  0  0  0  0  0  0  0  0  0
    4.3508   -1.5343   -0.4149 Cl  0  0  0  0  0  0  0  0  0  0  0  0
  1  2  1  0  0  0  0 
  1  3  2  0  0  0  0 
  1  4  1  0  0  0  0 
  2  5  1  0  0  0  0 
  4  6  1  0  0  0  0 
  5  7  1  0  0  0  0 
  6  8  1  0  0  0  0 
  7  9  1  0  0  0  0 
  7 10  2  0  0  0  0 
  9 11  2  0  0  0  0 
  9 12  1  0  0  0  0 
 13 10  1  0  0  0  0 
 11 14  1  0  0  0  0 
 14 13  2  0  0  0  0 
 14 15  1  0  0  0  0 
M  END
> <Name>
2,4-D, ETHYL ESTER

> <Source>
DougDB3DMolFile

> <Tox>
-2.959

> <CAS>
533-23-3

$$$$

  CDK

  6  5  0  0  0  0  0  0  0  0999 V2000
    2.3042   -0.0000    0.0000 O   0  0  0  0  0  0  0  0  0  0  0  0
    2.3042   -1.3318    0.0000 C   0  0  0  0  0  0  0  0  0  0  0  0
    3.4563   -1.9954    0.0000 C   0  0  0  0  0  0  0  0  0  0  0  0
    1.1521   -1.9954    0.0000 C   0  0  0  0  0  0  0  0  0  0  0  0
    4.6084   -1.3318    0.0000 Cl  0  0  0  0  0  0  0  0  0  0  0  0
    0.0000   -1.3318    0.0000 Cl  0  0  0  0  0  0  0  0  0  0  0  0
  1  2  2  0  0  0  0 
  2  3  1  0  0  0  0 
  2  4  1  0  0  0  0 
  3  5  1  0  0  0  0 
  4  6  1  0  0  0  0 
M  END
> <Name>
1,3-DICHLOROACETONE

> <Source>
DSSTox2DMolFile

> <Tox>
-0.202

> <CAS>
534-07-6

$$$$

  CDK

  6  6  0  0  0  0  0  0  0  0999 V2000
    0.0000   -1.0738    0.0000 C   0  0  0  0  0  0  0  0  0  0  0  0
    1.3304   -1.0738    0.0000 C   0  0  0  0  0  0  0  0  0  0  0  0
    2.1104   -0.0000    0.0000 C   0  0  0  0  0  0  0  0  0  0  0  0
    2.1104   -2.1509    0.0000 O   0  0  0  0  0  0  0  0  0  0  0  0
    3.3767   -0.4086    0.0000 C   0  0  0  0  0  0  0  0  0  0  0  0
    3.3767   -1.7390    0.0000 C   0  0  0  0  0  0  0  0  0  0  0  0
  1  2  1  0  0  0  0 
  2  3  2  0  0  0  0 
  2  4  1  0  0  0  0 
  3  5  1  0  0  0  0 
  6  4  1  0  0  0  0 
  5  6  2  0  0  0  0 
M  END
> <Name>
2-METHYLFURAN

> <Source>
DSSTox2DMolFile

> <Tox>
2.193

> <CAS>
534-22-5

$$$$

  CDK

 14 14  0  0  0  0  0  0  0  0999 V2000
    3.9918   -5.7573    0.0000 O   0  0  0  0  0  0  0  0  0  0  0  0
    3.3275   -4.6083    0.0000 C   0  0  0  0  0  0  0  0  0  0  0  0
    1.9929   -4.6083    0.0000 C   0  0  0  0  0  0  0  0  0  0  0  0
    3.9918   -3.4532    0.0000 C   0  0  0  0  0  0  0  0  0  0  0  0
    1.3286   -5.7573    0.0000 C   0  0  0  0  0  0  0  0  0  0  0  0
    1.3286   -3.4532    0.0000 C   0  0  0  0  0  0  0  0  0  0  0  0
    3.3275   -2.3041    0.0000 C   0  0  0  0  0  0  0  0  0  0  0  0
    5.3205   -3.4532    0.0000 N   0  0  0  0  0  0  0  0  0  0  0  0
    1.9929   -2.3041    0.0000 C   0  0  0  0  0  0  0  0  0  0  0  0
    5.9848   -2.3041    0.0000 O   0  0  0  0  0  0  0  0  0  0  0  0
    5.9848   -4.6083    0.0000 O   0  0  0  0  0  0  0  0  0  0  0  0
    1.3286   -1.1491    0.0000 N   0  0  0  0  0  0  0  0  0  0  0  0
    1.9929   -0.0000    0.0000 O   0  0  0  0  0  0  0  0  0  0  0  0
    0.0000   -1.1491    0.0000 O   0  0  0  0  0  0  0  0  0  0  0  0
  1  2  1  0  0  0  0 
  2  3  2  0  0  0  0 
  2  4  1  0  0  0  0 
  3  5  1  0  0  0  0 
  3  6  1  0  0  0  0 
  7  4  2  0  0  0  0 
  4  8  1  0  0  0  0 
  6  9  2  0  0  0  0 
  9  7  1  0  0  0  0 
  8 10  1  0  0  0  0 
  8 11  2  0  0  0  0 
  9 12  1  0  0  0  0 
 12 13  1  0  0  0  0 
 12 14  2  0  0  0  0 
M  CHG  1   8   1
M  CHG  1  10  -1
M  CHG  1  12   1
M  CHG  1  13  -1
M  END
> <Name>
4,6-DINITRO-O-CRESOL

> <Source>
DSSTox2DMolFile

> <Tox>
-3.921

> <CAS>
534-52-1

$$$$

  CDK

  8  7  0  0  0  0  0  0  0  0999 V2000
    0.0000    0.0000    0.0000 C   0  0  0  0  0  0  0  0  0  0  0  0
    1.2400   -0.4400   -0.7800 C   0  0  0  0  0  0  0  0  0  0  0  0
    1.4000    0.3800   -1.9200 O   0  0  0  0  0  0  0  0  0  0  0  0
    0.7600   -0.1200   -2.9800 C   0  0  0  0  0  0  0  0  0  0  0  0
   -0.0200   -1.0400   -2.9200 O   0  0  0  0  0  0  0  0  0  0  0  0
    1.0800    0.5200   -4.3000 C   0  0  0  0  0  0  0  0  0  0  0  0
    0.6600    2.2600   -4.2400 Cl  0  0  0  0  0  0  0  0  0  0  0  0
    2.8200    0.3600   -4.6600 Cl  0  0  0  0  0  0  0  0  0  0  0  0
  1  2  1  0  0  0  0 
  2  3  1  0  0  0  0 
  3  4  1  0  0  0  0 
  4  5  2  0  0  0  0 
  4  6  1  0  0  0  0 
  7  6  1  0  0  0  0 
  6  8  1  0  0  0  0 
M  END
> <Name>
ETHYL DICHLOROACETATE

> <Source>
NIH3DMolFile

> <Tox>
0.456

> <CAS>
535-15-9

$$$$

  CDK

 10 10  0  0  0  0  0  0  0  0999 V2000
   -1.6714   -0.6046   -0.0069 C   0  0  0  0  0  0  0  0  0  0  0  0
   -0.2854   -0.7624   -0.0056 C   0  0  0  0  0  0  0  0  0  0  0  0
   -2.2202    0.6785   -0.0033 C   0  0  0  0  0  0  0  0  0  0  0  0
   -2.5563   -1.7982    0.0009 C   0  0  0  0  0  0  0  0  0  0  0  0
    0.5545    0.3517    0.0017 C   0  0  0  0  0  0  0  0  0  0  0  0
   -1.3863    1.7898    0.0042 C   0  0  0  0  0  0  0  0  0  0  0  0
   -0.0053    1.6306    0.0071 C   0  0  0  0  0  0  0  0  0  0  0  0
    2.0512    0.1968    0.0030 C   0  0  0  0  0  0  0  0  0  0  0  0
    2.5198   -0.5363    1.2509 C   0  0  0  0  0  0  0  0  0  0  0  0
    2.5232   -0.5180   -1.2542 C   0  0  0  0  0  0  0  0  0  0  0  0
  1  2  1  0  0  0  0 
  1  3  2  0  0  0  0 
  1  4  1  0  0  0  0 
  2  5  2  0  0  0  0 
  6  3  1  0  0  0  0 
  5  7  1  0  0  0  0 
  5  8  1  0  0  0  0 
  7  6  2  0  0  0  0 
  8  9  1  0  0  0  0 
  8 10  1  0  0  0  0 
M  END
> <Name>
M-CYMENE

> <Source>
DougDB3DMolFile

> <Tox>
0.236

> <CAS>
535-77-3

$$$$

  CDK

  8  8  0  0  0  0  0  0  0  0999 V2000
    1.0642    2.1577    0.0535 C   0  0  0  0  0  0  0  0  0  0  0  0
    2.2567    2.1572    0.0535 C   0  0  0  0  0  0  0  0  0  0  0  0
    3.6740    2.1588    0.0535 C   0  0  0  0  0  0  0  0  0  0  0  0
    4.3725    3.3708    0.0832 C   0  0  0  0  0  0  0  0  0  0  0  0
    4.3760    0.9493    0.0235 C   0  0  0  0  0  0  0  0  0  0  0  0
    5.7622    3.3672    0.0831 C   0  0  0  0  0  0  0  0  0  0  0  0
    5.7663    0.9574    0.0240 C   0  0  0  0  0  0  0  0  0  0  0  0
    6.4587    2.1640    0.0542 C   0  0  0  0  0  0  0  0  0  0  0  0
  1  2  3  0  0  0  0 
  2  3  1  0  0  0  0 
  3  4  2  0  0  0  0 
  5  3  1  0  0  0  0 
  4  6  1  0  0  0  0 
  7  5  2  0  0  0  0 
  6  8  2  0  0  0  0 
  8  7  1  0  0  0  0 
M  END
> <Name>
ETHYNYL BENZENE

> <Source>
NIST3DMolFile

> <Tox>
0.314

> <CAS>
536-74-3

$$$$

  CDK

  8  8  0  0  0  0  0  0  0  0999 V2000
    0.0000    1.4432    0.0000 C   0  0  0  0  0  0  0  0  0  0  0  0
    0.9278    1.9587    0.0000 C   0  0  0  0  0  0  0  0  0  0  0  0
    1.8040    1.4432    0.0000 C   0  0  0  0  0  0  0  0  0  0  0  0
    2.6803    1.9587    0.0000 C   0  0  0  0  0  0  0  0  0  0  0  0
    1.8040    0.5154    0.0000 C   0  0  0  0  0  0  0  0  0  0  0  0
    3.5565    1.4432    0.0000 C   0  0  0  0  0  0  0  0  0  0  0  0
    2.6803    0.0000    0.0000 C   0  0  0  0  0  0  0  0  0  0  0  0
    3.5565    0.5154    0.0000 N   0  0  0  0  0  0  0  0  0  0  0  0
  1  2  1  0  0  0  0 
  2  3  1  0  0  0  0 
  3  4  2  0  0  0  0 
  5  3  1  0  0  0  0 
  4  6  1  0  0  0  0 
  7  5  2  0  0  0  0 
  6  8  2  0  0  0  0 
  8  7  1  0  0  0  0 
M  END
> <Name>
4-ETHYLPYRIDINE

> <Source>
NIST2DMolFile

> <Tox>
0.356

> <CAS>
536-75-4

$$$$

  CDK

 11 11  0  0  0  0  0  0  0  0999 V2000
    1.1535   -2.6619    0.0000 C   0  0  0  0  0  0  0  0  0  0  0  0
    0.0000   -2.0004    0.0000 C   0  0  0  0  0  0  0  0  0  0  0  0
    2.3070   -2.0004    0.0000 C   0  0  0  0  0  0  0  0  0  0  0  0
    0.0000   -0.6695    0.0000 C   0  0  0  0  0  0  0  0  0  0  0  0
    2.3070   -0.6695    0.0000 C   0  0  0  0  0  0  0  0  0  0  0  0
    3.4605   -2.6619    0.0000 C   0  0  0  0  0  0  0  0  0  0  0  0
    1.1535   -0.0000    0.0000 C   0  0  0  0  0  0  0  0  0  0  0  0
    4.6059   -2.0004    0.0000 C   0  0  0  0  0  0  0  0  0  0  0  0
    5.7594   -2.6619    0.0000 C   0  0  0  0  0  0  0  0  0  0  0  0
    6.9128   -2.0004    0.0000 C   0  0  0  0  0  0  0  0  0  0  0  0
    8.0663   -2.6619    0.0000 C   0  0  0  0  0  0  0  0  0  0  0  0
  1  2  2  0  0  0  0 
  1  3  1  0  0  0  0 
  2  4  1  0  0  0  0 
  5  3  2  0  0  0  0 
  3  6  1  0  0  0  0 
  4  7  2  0  0  0  0 
  7  5  1  0  0  0  0 
  6  8  1  0  0  0  0 
  8  9  1  0  0  0  0 
  9 10  1  0  0  0  0 
 10 11  1  0  0  0  0 
M  END
> <Name>
PENTYLBENZENE

> <Source>
DSSTox2DMolFile

> <Tox>
-0.358

> <CAS>
538-68-1

$$$$

  CDK

  9  9  0  0  0  0  0  0  0  0999 V2000
    1.0078    0.0000    0.0000 O   0  0  0  0  0  0  0  0  0  0  0  0
    1.5116    0.8566    0.0000 C   0  0  0  0  0  0  0  0  0  0  0  0
    0.0000    0.0000    0.0000 C   0  0  0  0  0  0  0  0  0  0  0  0
    2.5194    0.8566    0.0000 C   0  0  0  0  0  0  0  0  0  0  0  0
    3.0233    1.7132    0.0000 C   0  0  0  0  0  0  0  0  0  0  0  0
    3.0233    0.0000    0.0000 C   0  0  0  0  0  0  0  0  0  0  0  0
    4.0310    1.7132    0.0000 C   0  0  0  0  0  0  0  0  0  0  0  0
    4.0310    0.0000    0.0000 C   0  0  0  0  0  0  0  0  0  0  0  0
    4.5349    0.8566    0.0000 C   0  0  0  0  0  0  0  0  0  0  0  0
  1  2  1  0  0  0  0 
  1  3  1  0  0  0  0 
  2  4  1  0  0  0  0 
  5  4  2  0  0  0  0 
  4  6  1  0  0  0  0 
  7  5  1  0  0  0  0 
  6  8  2  0  0  0  0 
  9  7  2  0  0  0  0 
  8  9  1  0  0  0  0 
M  END
> <Name>
BENZYL METHYL ETHER

> <Source>
NIST2DMolFile

> <Tox>
0.220

> <CAS>
538-86-3

$$$$

  CDK

 10 10  0  0  0  0  0  0  0  0999 V2000
    2.0027   -3.4628    0.0000 C   0  0  0  0  0  0  0  0  0  0  0  0
    2.6606   -4.6171    0.0000 C   0  0  0  0  0  0  0  0  0  0  0  0
    0.6753   -3.4628    0.0000 C   0  0  0  0  0  0  0  0  0  0  0  0
    2.6606   -2.3086    0.0000 C   0  0  0  0  0  0  0  0  0  0  0  0
    2.0027   -5.7714    0.0000 C   0  0  0  0  0  0  0  0  0  0  0  0
    0.0000   -4.6171    0.0000 C   0  0  0  0  0  0  0  0  0  0  0  0
    2.0027   -1.1543    0.0000 C   0  0  0  0  0  0  0  0  0  0  0  0
    0.6753   -5.7714    0.0000 C   0  0  0  0  0  0  0  0  0  0  0  0
    0.6753   -1.1543    0.0000 C   0  0  0  0  0  0  0  0  0  0  0  0
    2.6606   -0.0000    0.0000 C   0  0  0  0  0  0  0  0  0  0  0  0
  1  2  2  0  0  0  0 
  1  3  1  0  0  0  0 
  1  4  1  0  0  0  0 
  2  5  1  0  0  0  0 
  6  3  2  0  0  0  0 
  4  7  1  0  0  0  0 
  5  8  2  0  0  0  0 
  8  6  1  0  0  0  0 
  7  9  1  0  0  0  0 
  7 10  1  0  0  0  0 
M  END
> <Name>
ISOBUTYLBENZENE

> <Source>
DSSTox2DMolFile

> <Tox>
0.286

> <CAS>
538-93-2

$$$$

  CDK

 10 10  0  0  0  0  0  0  0  0999 V2000
    0.5060    0.0000    0.0000 C   0  0  0  0  0  0  0  0  0  0  0  0
    0.0000    0.8096    0.0000 C   0  0  0  0  0  0  0  0  0  0  0  0
    1.5686    0.0000    0.0000 C   0  0  0  0  0  0  0  0  0  0  0  0
    0.5060    1.6698    0.0000 C   0  0  0  0  0  0  0  0  0  0  0  0
    2.0240    0.8096    0.0000 C   0  0  0  0  0  0  0  0  0  0  0  0
    1.5686    1.6698    0.0000 C   0  0  0  0  0  0  0  0  0  0  0  0
    2.9854    0.8096    0.0000 C   0  0  0  0  0  0  0  0  0  0  0  0
    3.4914    1.6698    0.0000 O   0  0  0  0  0  0  0  0  0  0  0  0
    4.5540    1.6698    0.0000 C   0  0  0  0  0  0  0  0  0  0  0  0
    5.0600    2.5300    0.0000 C   0  0  0  0  0  0  0  0  0  0  0  0
  1  2  2  0  0  0  0 
  3  1  1  0  0  0  0 
  2  4  1  0  0  0  0 
  5  3  2  0  0  0  0 
  4  6  2  0  0  0  0 
  5  7  1  0  0  0  0 
  6  5  1  0  0  0  0 
  7  8  1  0  0  0  0 
  8  9  1  0  0  0  0 
  9 10  1  0  0  0  0 
M  END
> <Name>
BENZYL ETHYL ETHER

> <Source>
NIST2DMolFile

> <Tox>
-0.034

> <CAS>
539-30-0

$$$$

  CDK

  9  8  0  0  0  0  0  0  0  0999 V2000
    3.4855    1.4938    0.0000 C   0  0  0  0  0  0  0  0  0  0  0  0
    2.5892    0.9959    0.0000 C   0  0  0  0  0  0  0  0  0  0  0  0
    4.3320    0.9959    0.0000 C   0  0  0  0  0  0  0  0  0  0  0  0
    1.7427    1.4938    0.0000 O   0  0  0  0  0  0  0  0  0  0  0  0
    2.5892    0.0000    0.0000 O   0  0  0  0  0  0  0  0  0  0  0  0
    5.1784    1.4938    0.0000 C   0  0  0  0  0  0  0  0  0  0  0  0
    0.8963    0.9959    0.0000 C   0  0  0  0  0  0  0  0  0  0  0  0
    6.0747    0.9959    0.0000 C   0  0  0  0  0  0  0  0  0  0  0  0
    0.0000    1.4938    0.0000 C   0  0  0  0  0  0  0  0  0  0  0  0
  1  2  1  0  0  0  0 
  1  3  1  0  0  0  0 
  2  4  1  0  0  0  0 
  2  5  2  0  0  0  0 
  3  6  1  0  0  0  0 
  4  7  1  0  0  0  0 
  6  8  1  0  0  0  0 
  7  9  1  0  0  0  0 
M  END
> <Name>
ETHYL VALERATE

> <Source>
NIST2DMolFile

> <Tox>
0.681

> <CAS>
539-82-2

$$$$

  CDK

 10  9  0  0  0  0  0  0  0  0999 V2000
    0.0000    0.9963    0.0000 C   0  0  0  0  0  0  0  0  0  0  0  0
    0.8967    1.4945    0.0000 C   0  0  0  0  0  0  0  0  0  0  0  0
    1.7435    0.9963    0.0000 C   0  0  0  0  0  0  0  0  0  0  0  0
    0.8967    2.4908    0.0000 O   0  0  0  0  0  0  0  0  0  0  0  0
    2.5904    1.4945    0.0000 C   0  0  0  0  0  0  0  0  0  0  0  0
    3.4871    0.9963    0.0000 C   0  0  0  0  0  0  0  0  0  0  0  0
    4.3340    1.4945    0.0000 O   0  0  0  0  0  0  0  0  0  0  0  0
    3.4871    0.0000    0.0000 O   0  0  0  0  0  0  0  0  0  0  0  0
    5.1808    0.9963    0.0000 C   0  0  0  0  0  0  0  0  0  0  0  0
    6.0775    1.4945    0.0000 C   0  0  0  0  0  0  0  0  0  0  0  0
  1  2  1  0  0  0  0 
  2  3  1  0  0  0  0 
  2  4  2  0  0  0  0 
  3  5  1  0  0  0  0 
  5  6  1  0  0  0  0 
  6  7  1  0  0  0  0 
  6  8  2  0  0  0  0 
  7  9  1  0  0  0  0 
  9 10  1  0  0  0  0 
M  END
> <Name>
ETHYL LEVULINATE

> <Source>
NIST2DMolFile

> <Tox>
-0.682

> <CAS>
539-88-8

$$$$

  CDK

  9  8  0  0  0  0  0  0  0  0999 V2000
    2.5988    1.4993    0.0000 O   0  0  0  0  0  0  0  0  0  0  0  0
    1.7492    0.9995    0.0000 C   0  0  0  0  0  0  0  0  0  0  0  0
    3.4484    0.9995    0.0000 C   0  0  0  0  0  0  0  0  0  0  0  0
    0.8496    1.4993    0.0000 C   0  0  0  0  0  0  0  0  0  0  0  0
    1.7492    0.0000    0.0000 O   0  0  0  0  0  0  0  0  0  0  0  0
    4.3480    1.4993    0.0000 C   0  0  0  0  0  0  0  0  0  0  0  0
    0.0000    0.9995    0.0000 C   0  0  0  0  0  0  0  0  0  0  0  0
    4.3480    2.4988    0.0000 C   0  0  0  0  0  0  0  0  0  0  0  0
    5.1976    0.9995    0.0000 C   0  0  0  0  0  0  0  0  0  0  0  0
  1  2  1  0  0  0  0 
  1  3  1  0  0  0  0 
  2  4  1  0  0  0  0 
  2  5  2  0  0  0  0 
  3  6  1  0  0  0  0 
  4  7  1  0  0  0  0 
  6  8  1  0  0  0  0 
  6  9  1  0  0  0  0 
M  END
> <Name>
2-METHYLPROPYL PROPANOATE

> <Source>
NIST2DMolFile

> <Tox>
0.811

> <CAS>
540-42-1

$$$$

  CDK

  4  3  0  0  0  0  0  0  0  0999 V2000
    2.0039    1.0884    1.9845 Br  0  0  0  0  0  0  0  0  0  0  0  0
    2.0850    0.2054    0.3557 C   0  0  0  0  0  0  0  0  0  0  0  0
    1.0133   -0.1780   -0.3398 C   0  0  0  0  0  0  0  0  0  0  0  0
    1.0939   -1.0610   -1.9688 Br  0  0  0  0  0  0  0  0  0  0  0  0
  1  2  1  0  0  0  0 
  2  3  2  0  0  0  0 
  4  3  1  0  0  0  0 
M  END
> <Name>
1,2-Ethylene Dibromide

> <Source>
Chemidplus3DMolFile

> <Tox>
1.491

> <CAS>
540-49-8

$$$$

  CDK

  4  3  0  0  0  0  0  0  0  0999 V2000
    1.6259    1.9302    1.0354 C   0  0  0  0  0  0  0  0  0  0  0  0
    0.0000    2.1418    1.7272 Cl  0  0  0  0  0  0  0  0  0  0  0  0
    2.4029    0.9637    1.8999 C   0  0  0  0  0  0  0  0  0  0  0  0
    3.7965    0.7438    1.3566 C   0  0  0  0  0  0  0  0  0  0  0  0
  1  2  1  0  0  0  0 
  1  3  1  0  0  0  0 
  3  4  1  0  0  0  0 
M  END
> <Name>
1-CHLOROPROPANE

> <Source>
NIST3DMolFile

> <Tox>
2.538

> <CAS>
540-54-5

$$$$

  CDK

  4  3  0  0  0  0  0  0  0  0999 V2000
    0.9664    1.6865    0.8245 O   0  0  0  0  0  0  0  0  0  0  0  0
    0.8379    3.0719    1.0186 C   0  0  0  0  0  0  0  0  0  0  0  0
    1.9833    1.0649    1.5874 C   0  0  0  0  0  0  0  0  0  0  0  0
    3.3852    1.3376    1.0712 C   0  0  0  0  0  0  0  0  0  0  0  0
  1  2  1  0  0  0  0 
  1  3  1  0  0  0  0 
  3  4  1  0  0  0  0 
M  END
> <Name>
ETHYL METHYL ETHER

> <Source>
NIST3DMolFile

> <Tox>
3.173

> <CAS>
540-67-0

$$$$

  CDK

  8  7  0  0  0  0  0  0  0  0999 V2000
    1.1703   -1.3090    0.0000 C   0  0  0  0  0  0  0  0  0  0  0  0
    2.2989   -1.9566    0.0000 C   0  0  0  0  0  0  0  0  0  0  0  0
    1.8548   -0.1665    0.0000 C   0  0  0  0  0  0  0  0  0  0  0  0
    0.4811   -2.4654    0.0000 C   0  0  0  0  0  0  0  0  0  0  0  0
    0.0000   -0.6476    0.0000 C   0  0  0  0  0  0  0  0  0  0  0  0
    3.4692   -1.3368    0.0000 C   0  0  0  0  0  0  0  0  0  0  0  0
    4.6255   -1.9844    0.0000 C   0  0  0  0  0  0  0  0  0  0  0  0
    3.4692   -0.0000    0.0000 C   0  0  0  0  0  0  0  0  0  0  0  0
  1  2  1  0  0  0  0 
  1  3  1  0  0  0  0 
  1  4  1  0  0  0  0 
  1  5  1  0  0  0  0 
  2  6  1  0  0  0  0 
  6  7  1  0  0  0  0 
  6  8  1  0  0  0  0 
M  END
> <Name>
2,2,4-TRIMETHYLPENTANE

> <Source>
DSSTox2DMolFile

> <Tox>
1.693

> <CAS>
540-84-1

$$$$

  CDK

  8  7  0  0  0  0  0  0  0  0999 V2000
    1.1522   -0.0000    0.0000 O   0  0  0  0  0  0  0  0  0  0  0  0
    1.1522   -1.3319    0.0000 C   0  0  0  0  0  0  0  0  0  0  0  0
    2.3044   -1.9956    0.0000 O   0  0  0  0  0  0  0  0  0  0  0  0
    0.0000   -1.9956    0.0000 C   0  0  0  0  0  0  0  0  0  0  0  0
    3.4566   -1.3319    0.0000 C   0  0  0  0  0  0  0  0  0  0  0  0
    2.7929   -0.1797    0.0000 C   0  0  0  0  0  0  0  0  0  0  0  0
    4.6088   -0.6683    0.0000 C   0  0  0  0  0  0  0  0  0  0  0  0
    4.1203   -2.4842    0.0000 C   0  0  0  0  0  0  0  0  0  0  0  0
  1  2  2  0  0  0  0 
  2  3  1  0  0  0  0 
  2  4  1  0  0  0  0 
  3  5  1  0  0  0  0 
  5  6  1  0  0  0  0 
  5  7  1  0  0  0  0 
  5  8  1  0  0  0  0 
M  END
> <Name>
T-BUTYL ACETATE

> <Source>
DSSTox2DMolFile

> <Tox>
1.672

> <CAS>
540-88-5

$$$$

  CDK

 24 24  0  0  0  0  0  0  0  0999 V2000
    4.7946   -1.8043    0.0000 O   0  0  0  0  0  0  0  0  0  0  0  0
    4.7946   -3.1358    0.0000 Si  0  0  0  0  0  0  0  0  0  0  0  0
    3.6378   -1.1495    0.0000 Si  0  0  0  0  0  0  0  0  0  0  0  0
    5.9441   -3.7978    0.0000 O   0  0  0  0  0  0  0  0  0  0  0  0
    6.1187   -3.1358    0.0000 C   0  0  0  0  0  0  0  0  0  0  0  0
    5.4494   -1.9862    0.0000 C   0  0  0  0  0  0  0  0  0  0  0  0
    2.4810   -1.8043    0.0000 O   0  0  0  0  0  0  0  0  0  0  0  0
    2.9830   -0.0000    0.0000 C   0  0  0  0  0  0  0  0  0  0  0  0
    4.3144   -0.0000    0.0000 C   0  0  0  0  0  0  0  0  0  0  0  0
    5.9441   -5.1220    0.0000 Si  0  0  0  0  0  0  0  0  0  0  0  0
    2.4810   -3.1358    0.0000 Si  0  0  0  0  0  0  0  0  0  0  0  0
    4.7946   -5.7986    0.0000 O   0  0  0  0  0  0  0  0  0  0  0  0
    6.5989   -6.2788    0.0000 C   0  0  0  0  0  0  0  0  0  0  0  0
    7.2755   -5.1220    0.0000 C   0  0  0  0  0  0  0  0  0  0  0  0
    1.3314   -3.7978    0.0000 O   0  0  0  0  0  0  0  0  0  0  0  0
    1.8116   -1.9862    0.0000 C   0  0  0  0  0  0  0  0  0  0  0  0
    1.1568   -3.1358    0.0000 C   0  0  0  0  0  0  0  0  0  0  0  0
    3.6378   -5.1220    0.0000 Si  0  0  0  0  0  0  0  0  0  0  0  0
    1.3314   -5.1220    0.0000 Si  0  0  0  0  0  0  0  0  0  0  0  0
    2.4810   -5.7986    0.0000 O   0  0  0  0  0  0  0  0  0  0  0  0
    2.9830   -6.2788    0.0000 C   0  0  0  0  0  0  0  0  0  0  0  0
    4.3144   -6.2788    0.0000 C   0  0  0  0  0  0  0  0  0  0  0  0
    0.0000   -5.1220    0.0000 C   0  0  0  0  0  0  0  0  0  0  0  0
    0.6766   -6.2788    0.0000 C   0  0  0  0  0  0  0  0  0  0  0  0
  1  2  1  0  0  0  0 
  1  3  1  0  0  0  0 
  2  4  1  0  0  0  0 
  2  5  1  0  0  0  0 
  2  6  1  0  0  0  0 
  7  3  1  0  0  0  0 
  3  8  1  0  0  0  0 
  3  9  1  0  0  0  0 
  4 10  1  0  0  0  0 
 11  7  1  0  0  0  0 
 10 12  1  0  0  0  0 
 10 13  1  0  0  0  0 
 10 14  1  0  0  0  0 
 15 11  1  0  0  0  0 
 11 16  1  0  0  0  0 
 11 17  1  0  0  0  0 
 12 18  1  0  0  0  0 
 19 15  1  0  0  0  0 
 18 20  1  0  0  0  0 
 18 21  1  0  0  0  0 
 18 22  1  0  0  0  0 
 20 19  1  0  0  0  0 
 19 23  1  0  0  0  0 
 19 24  1  0  0  0  0 
M  END
> <Name>
DODECAMETHYLCYCLOHEXASILOXANE

> <Source>
DSSTox2DMolFile

> <Tox>
-1.648

> <CAS>
540-97-6

$$$$

  CDK

 29 28  0  0  0  0  0  0  0  0999 V2000
    6.0167   11.8001    0.0000 C   0  0  0  0  0  0  0  0  0  0  0  0
    4.9439   12.7329    0.0000 Si  0  0  0  0  0  0  0  0  0  0  0  0
    5.2238   14.0855    0.0000 C   0  0  0  0  0  0  0  0  0  0  0  0
    3.6380   13.1993    0.0000 C   0  0  0  0  0  0  0  0  0  0  0  0
    4.2443   11.5203    0.0000 O   0  0  0  0  0  0  0  0  0  0  0  0
    2.8451   11.5203    0.0000 Si  0  0  0  0  0  0  0  0  0  0  0  0
    2.1455   12.7329    0.0000 C   0  0  0  0  0  0  0  0  0  0  0  0
    3.1249   10.1210    0.0000 C   0  0  0  0  0  0  0  0  0  0  0  0
    1.5391   11.0072    0.0000 O   0  0  0  0  0  0  0  0  0  0  0  0
    1.3059    9.6546    0.0000 Si  0  0  0  0  0  0  0  0  0  0  0  0
    2.3787    8.7685    0.0000 C   0  0  0  0  0  0  0  0  0  0  0  0
    0.0000   10.1210    0.0000 C   0  0  0  0  0  0  0  0  0  0  0  0
    0.6063    8.4420    0.0000 O   0  0  0  0  0  0  0  0  0  0  0  0
    1.3059    7.2293    0.0000 Si  0  0  0  0  0  0  0  0  0  0  0  0
    2.7052    7.2293    0.0000 C   0  0  0  0  0  0  0  0  0  0  0  0
    0.0000    6.7629    0.0000 C   0  0  0  0  0  0  0  0  0  0  0  0
    1.5391    5.8301    0.0000 O   0  0  0  0  0  0  0  0  0  0  0  0
    2.8451    5.3637    0.0000 Si  0  0  0  0  0  0  0  0  0  0  0  0
    3.9178    6.2499    0.0000 C   0  0  0  0  0  0  0  0  0  0  0  0
    2.1455    4.1510    0.0000 C   0  0  0  0  0  0  0  0  0  0  0  0
    4.2443    4.1977    0.0000 O   0  0  0  0  0  0  0  0  0  0  0  0
    3.9178    2.4253    0.0000 Si  0  0  0  0  0  0  0  0  0  0  0  0
    4.1977    1.0261    0.0000 C   0  0  0  0  0  0  0  0  0  0  0  0
    2.6119    2.8917    0.0000 C   0  0  0  0  0  0  0  0  0  0  0  0
    5.3170    2.4253    0.0000 O   0  0  0  0  0  0  0  0  0  0  0  0
    6.0167    1.2127    0.0000 Si  0  0  0  0  0  0  0  0  0  0  0  0
    5.3170    0.0000    0.0000 C   0  0  0  0  0  0  0  0  0  0  0  0
    7.0894    0.2798    0.0000 C   0  0  0  0  0  0  0  0  0  0  0  0
    7.0894    2.0988    0.0000 C   0  0  0  0  0  0  0  0  0  0  0  0
  1  2  1  0  0  0  0 
  2  3  1  0  0  0  0 
  2  4  1  0  0  0  0 
  2  5  1  0  0  0  0 
  5  6  1  0  0  0  0 
  6  7  1  0  0  0  0 
  6  8  1  0  0  0  0 
  6  9  1  0  0  0  0 
  9 10  1  0  0  0  0 
 10 11  1  0  0  0  0 
 10 12  1  0  0  0  0 
 10 13  1  0  0  0  0 
 13 14  1  0  0  0  0 
 14 15  1  0  0  0  0 
 14 16  1  0  0  0  0 
 14 17  1  0  0  0  0 
 17 18  1  0  0  0  0 
 18 19  1  0  0  0  0 
 18 20  1  0  0  0  0 
 18 21  1  0  0  0  0 
 21 22  1  0  0  0  0 
 22 23  1  0  0  0  0 
 22 24  1  0  0  0  0 
 22 25  1  0  0  0  0 
 25 26  1  0  0  0  0 
 26 27  1  0  0  0  0 
 26 28  1  0  0  0  0 
 26 29  1  0  0  0  0 
M  END
> <Name>
HEXADECAMETHYLHEPTASILOXANE

> <Source>
IndexNet2DMolFile

> <Tox>
-2.496

> <CAS>
541-01-5

$$$$

  CDK

 20 20  0  0  0  0  0  0  0  0999 V2000
    3.9784   -1.3149    0.0000 O   0  0  0  0  0  0  0  0  0  0  0  0
    5.0585   -2.0865    0.0000 Si  0  0  0  0  0  0  0  0  0  0  0  0
    2.6500   -1.3149    0.0000 Si  0  0  0  0  0  0  0  0  0  0  0  0
    5.4744   -3.3544    0.0000 O   0  0  0  0  0  0  0  0  0  0  0  0
    6.3265   -2.3078    0.0000 C   0  0  0  0  0  0  0  0  0  0  0  0
    5.6019   -0.8654    0.0000 C   0  0  0  0  0  0  0  0  0  0  0  0
    1.5699   -2.0865    0.0000 O   0  0  0  0  0  0  0  0  0  0  0  0
    1.6504   -0.4159    0.0000 C   0  0  0  0  0  0  0  0  0  0  0  0
    2.9184   -0.0000    0.0000 C   0  0  0  0  0  0  0  0  0  0  0  0
    5.0585   -4.6224    0.0000 Si  0  0  0  0  0  0  0  0  0  0  0  0
    1.1539   -3.3544    0.0000 Si  0  0  0  0  0  0  0  0  0  0  0  0
    3.9784   -5.4073    0.0000 O   0  0  0  0  0  0  0  0  0  0  0  0
    5.6019   -5.8434    0.0000 C   0  0  0  0  0  0  0  0  0  0  0  0
    6.3399   -4.3675    0.0000 C   0  0  0  0  0  0  0  0  0  0  0  0
    1.5699   -4.6224    0.0000 O   0  0  0  0  0  0  0  0  0  0  0  0
    0.0000   -2.6970    0.0000 C   0  0  0  0  0  0  0  0  0  0  0  0
    0.0000   -4.0253    0.0000 C   0  0  0  0  0  0  0  0  0  0  0  0
    2.6500   -5.4073    0.0000 Si  0  0  0  0  0  0  0  0  0  0  0  0
    1.6504   -6.2929    0.0000 C   0  0  0  0  0  0  0  0  0  0  0  0
    2.9184   -6.7089    0.0000 C   0  0  0  0  0  0  0  0  0  0  0  0
  1  2  1  0  0  0  0 
  1  3  1  0  0  0  0 
  2  4  1  0  0  0  0 
  2  5  1  0  0  0  0 
  2  6  1  0  0  0  0 
  7  3  1  0  0  0  0 
  3  8  1  0  0  0  0 
  3  9  1  0  0  0  0 
  4 10  1  0  0  0  0 
 11  7  1  0  0  0  0 
 10 12  1  0  0  0  0 
 10 13  1  0  0  0  0 
 10 14  1  0  0  0  0 
 15 11  1  0  0  0  0 
 11 16  1  0  0  0  0 
 11 17  1  0  0  0  0 
 12 18  1  0  0  0  0 
 18 15  1  0  0  0  0 
 18 19  1  0  0  0  0 
 18 20  1  0  0  0  0 
M  END
> <Name>
DECAMETHYLCYCLOPENTASILOXANE

> <Source>
DSSTox2DMolFile

> <Tox>
-0.699

> <CAS>
541-02-6

$$$$

  CDK

 12 12  0  0  0  0  0  0  0  0999 V2000
    2.4813   -1.3300    0.0000 O   0  0  0  0  0  0  0  0  0  0  0  0
    3.1363   -2.4813    0.0000 Si  0  0  0  0  0  0  0  0  0  0  0  0
    1.1513   -1.3300    0.0000 Si  0  0  0  0  0  0  0  0  0  0  0  0
    2.4813   -3.6326    0.0000 O   0  0  0  0  0  0  0  0  0  0  0  0
    4.2926   -1.8113    0.0000 C   0  0  0  0  0  0  0  0  0  0  0  0
    4.2926   -3.1512    0.0000 C   0  0  0  0  0  0  0  0  0  0  0  0
    0.4814   -2.4813    0.0000 O   0  0  0  0  0  0  0  0  0  0  0  0
    1.1513   -0.0000    0.0000 C   0  0  0  0  0  0  0  0  0  0  0  0
    0.0000   -0.6699    0.0000 C   0  0  0  0  0  0  0  0  0  0  0  0
    1.1513   -3.6326    0.0000 Si  0  0  0  0  0  0  0  0  0  0  0  0
    0.0000   -4.2926    0.0000 C   0  0  0  0  0  0  0  0  0  0  0  0
    1.1513   -4.9625    0.0000 C   0  0  0  0  0  0  0  0  0  0  0  0
  1  2  1  0  0  0  0 
  1  3  1  0  0  0  0 
  2  4  1  0  0  0  0 
  2  5  1  0  0  0  0 
  2  6  1  0  0  0  0 
  7  3  1  0  0  0  0 
  3  8  1  0  0  0  0 
  3  9  1  0  0  0  0 
  4 10  1  0  0  0  0 
 10  7  1  0  0  0  0 
 10 11  1  0  0  0  0 
 10 12  1  0  0  0  0 
M  END
> <Name>
HEXAMETHYLCYCLOTRISILOXANE

> <Source>
DSSTox2DMolFile

> <Tox>
0.548

> <CAS>
541-05-9

$$$$

  CDK

  6  5  0  0  0  0  0  0  0  0999 V2000
    1.4770    0.8659    0.0000 C   0  0  0  0  0  0  0  0  0  0  0  0
    0.5093    0.8659    0.0000 As  0  0  0  0  0  0  0  0  0  0  0  0
    1.9864    0.0000    0.0000 C   0  0  0  0  0  0  0  0  0  0  0  0
    0.0000    0.0000    0.0000 Cl  0  0  0  0  0  0  0  0  0  0  0  0
    0.0000    1.7317    0.0000 Cl  0  0  0  0  0  0  0  0  0  0  0  0
    3.0050    0.0000    0.0000 Cl  0  0  0  0  0  0  0  0  0  0  0  0
  1  2  1  0  0  0  0 
  1  3  2  0  0  0  0 
  2  4  1  0  0  0  0 
  2  5  1  0  0  0  0 
  3  6  1  0  0  0  0 
M  END
> <Name>
DICHLORO(2-CHLOROVINYL)ARSINE (TRANS)

> <Source>
NIST2DMolFile

> <Tox>
-0.237

> <CAS>
541-25-3

$$$$

  CDK

  6  5  0  0  0  0  0  0  0  0999 V2000
    0.9112    0.5062    0.0000 C   0  0  0  0  0  0  0  0  0  0  0  0
    1.7211    0.0000    0.0000 C   0  0  0  0  0  0  0  0  0  0  0  0
    0.0000    0.0000    0.0000 Cl  0  0  0  0  0  0  0  0  0  0  0  0
    0.9112    1.4680    0.0000 Cl  0  0  0  0  0  0  0  0  0  0  0  0
    2.5817    0.5062    0.0000 C   0  0  0  0  0  0  0  0  0  0  0  0
    3.4928    0.0000    0.0000 C   0  0  0  0  0  0  0  0  0  0  0  0
  1  2  1  0  0  0  0 
  1  3  1  0  0  0  0 
  1  4  1  0  0  0  0 
  2  5  1  0  0  0  0 
  5  6  1  0  0  0  0 
M  END
> <Name>
1,1-DICHLOROBUTANE

> <Source>
NIST2DMolFile

> <Tox>
1.358

> <CAS>
541-33-3

$$$$

  CDK

  6  5  0  0  0  0  0  0  0  0999 V2000
    1.9788    2.5717    1.9671 C   0  0  0  0  0  0  0  0  0  0  0  0
    1.0533    1.3763    2.0620 C   0  0  0  0  0  0  0  0  0  0  0  0
    3.4323    2.1239    1.9185 C   0  0  0  0  0  0  0  0  0  0  0  0
    0.5998    0.7889    0.8795 N   0  0  0  0  0  0  0  0  0  0  0  0
    0.6607    0.8762    3.1105 O   0  0  0  0  0  0  0  0  0  0  0  0
    4.3666    3.3112    1.8551 C   0  0  0  0  0  0  0  0  0  0  0  0
  1  2  1  0  0  0  0 
  1  3  1  0  0  0  0 
  2  4  1  0  0  0  0 
  2  5  2  0  0  0  0 
  3  6  1  0  0  0  0 
M  END
> <Name>
BUTYRAMIDE

> <Source>
NIST3DMolFile

> <Tox>
-2.408

> <CAS>
541-35-5

$$$$

  CDK

  6  5  0  0  0  0  0  0  0  0999 V2000
    3.4491   -1.3244    0.0000 C   0  0  0  0  0  0  0  0  0  0  0  0
    3.4491   -0.0000    0.0000 O   0  0  0  0  0  0  0  0  0  0  0  0
    2.2994   -1.9959    0.0000 O   0  0  0  0  0  0  0  0  0  0  0  0
    4.5988   -1.9959    0.0000 Cl  0  0  0  0  0  0  0  0  0  0  0  0
    1.1497   -1.3244    0.0000 C   0  0  0  0  0  0  0  0  0  0  0  0
    0.0000   -1.9959    0.0000 C   0  0  0  0  0  0  0  0  0  0  0  0
  1  2  2  0  0  0  0 
  1  3  1  0  0  0  0 
  1  4  1  0  0  0  0 
  3  5  1  0  0  0  0 
  5  6  1  0  0  0  0 
M  END
> <Name>
ETHYL CHLOROCARBONATE

> <Source>
DSSTox2DMolFile

> <Tox>
1.350

> <CAS>
541-41-3

$$$$

  CDK

  7  7  0  0  0  0  0  0  0  0999 V2000
    0.0000    0.0000    0.0000 C   0  0  0  0  0  0  0  0  0  0  0  0
   -0.6800   -1.3600    0.0000 C   0  0  0  0  0  0  0  0  0  0  0  0
   -2.0400   -1.4600    0.0000 N   0  0  0  0  0  0  0  0  0  0  0  0
   -0.0400   -2.6000    0.0000 C   0  0  0  0  0  0  0  0  0  0  0  0
   -2.4600   -2.7600    0.0000 C   0  0  0  0  0  0  0  0  0  0  0  0
   -1.1600   -3.8600    0.0000 S   0  0  0  0  0  0  0  0  0  0  0  0
   -3.9000   -3.1800    0.0000 C   0  0  0  0  0  0  0  0  0  0  0  0
  1  2  1  0  0  0  0 
  2  3  1  0  0  0  0 
  2  4  2  0  0  0  0 
  3  5  2  0  0  0  0 
  6  4  1  0  0  0  0 
  5  7  1  0  0  0  0 
  5  6  1  0  0  0  0 
M  END
> <Name>
2,4-DIMETHYLTHIAZOLE

> <Source>
NIH3DMolFile

> <Tox>
0.706

> <CAS>
541-58-2

$$$$

  CDK

  8  8  0  0  0  0  0  0  0  0999 V2000
    4.6080   -2.6588    0.0000 Cl  0  0  0  0  0  0  0  0  0  0  0  0
    3.4560   -1.9953    0.0000 C   0  0  0  0  0  0  0  0  0  0  0  0
    2.3040   -2.6588    0.0000 C   0  0  0  0  0  0  0  0  0  0  0  0
    3.4560   -0.6635    0.0000 C   0  0  0  0  0  0  0  0  0  0  0  0
    1.1520   -1.9953    0.0000 C   0  0  0  0  0  0  0  0  0  0  0  0
    2.3040   -0.0000    0.0000 C   0  0  0  0  0  0  0  0  0  0  0  0
    0.0000   -2.6588    0.0000 Cl  0  0  0  0  0  0  0  0  0  0  0  0
    1.1520   -0.6635    0.0000 C   0  0  0  0  0  0  0  0  0  0  0  0
  1  2  1  0  0  0  0 
  2  3  2  0  0  0  0 
  2  4  1  0  0  0  0 
  3  5  1  0  0  0  0 
  6  4  2  0  0  0  0 
  5  7  1  0  0  0  0 
  5  8  2  0  0  0  0 
  8  6  1  0  0  0  0 
M  END
> <Name>
3-DICHLOROBENZENE

> <Source>
DSSTox2DMolFile

> <Tox>
0.332

> <CAS>
541-73-1

$$$$

  CDK

  9  8  0  0  0  0  0  0  0  0999 V2000
    2.5988    1.4993    0.0000 O   0  0  0  0  0  0  0  0  0  0  0  0
    1.7492    0.9995    0.0000 C   0  0  0  0  0  0  0  0  0  0  0  0
    3.4484    0.9995    0.0000 C   0  0  0  0  0  0  0  0  0  0  0  0
    0.8496    1.4993    0.0000 C   0  0  0  0  0  0  0  0  0  0  0  0
    1.7492    0.0000    0.0000 O   0  0  0  0  0  0  0  0  0  0  0  0
    4.3480    1.4993    0.0000 C   0  0  0  0  0  0  0  0  0  0  0  0
    3.4484    0.0000    0.0000 O   0  0  0  0  0  0  0  0  0  0  0  0
    0.0000    0.9995    0.0000 Cl  0  0  0  0  0  0  0  0  0  0  0  0
    5.1976    0.9995    0.0000 Cl  0  0  0  0  0  0  0  0  0  0  0  0
  1  2  1  0  0  0  0 
  1  3  1  0  0  0  0 
  2  4  1  0  0  0  0 
  2  5  2  0  0  0  0 
  3  6  1  0  0  0  0 
  3  7  2  0  0  0  0 
  4  8  1  0  0  0  0 
  6  9  1  0  0  0  0 
M  END
> <Name>
CHLOROACETIC ANHYDRIDE

> <Source>
NIST2DMolFile

> <Tox>
-1.429

> <CAS>
541-88-8

$$$$

  CDK

  7  7  0  0  0  0  0  0  0  0999 V2000
    0.0000    0.8568    0.0000 Cl  0  0  0  0  0  0  0  0  0  0  0  0
    1.0080    0.8568    0.0000 C   0  0  0  0  0  0  0  0  0  0  0  0
    1.5120    1.7136    0.0000 C   0  0  0  0  0  0  0  0  0  0  0  0
    1.5120    0.0000    0.0000 C   0  0  0  0  0  0  0  0  0  0  0  0
    2.5199    1.7136    0.0000 C   0  0  0  0  0  0  0  0  0  0  0  0
    2.5199    0.0000    0.0000 C   0  0  0  0  0  0  0  0  0  0  0  0
    3.0239    0.8568    0.0000 C   0  0  0  0  0  0  0  0  0  0  0  0
  1  2  1  0  0  0  0 
  3  2  1  0  0  0  0 
  2  4  1  0  0  0  0 
  5  3  1  0  0  0  0 
  4  6  1  0  0  0  0 
  7  5  1  0  0  0  0 
  6  7  1  0  0  0  0 
M  END
> <Name>
CHLOROCYCLOHEXANE

> <Source>
NIST2DMolFile

> <Tox>
0.828

> <CAS>
542-18-7

$$$$

  CDK

  7  6  0  0  0  0  0  0  0  0999 V2000
    0.0000    1.0183    0.0000 C   0  0  0  0  0  0  0  0  0  0  0  0
    0.9165    1.4766    0.0000 C   0  0  0  0  0  0  0  0  0  0  0  0
    1.7311    1.0183    0.0000 C   0  0  0  0  0  0  0  0  0  0  0  0
    0.9165    2.4949    0.0000 C   0  0  0  0  0  0  0  0  0  0  0  0
    2.5967    1.4766    0.0000 O   0  0  0  0  0  0  0  0  0  0  0  0
    3.5132    1.0183    0.0000 C   0  0  0  0  0  0  0  0  0  0  0  0
    3.5132    0.0000    0.0000 O   0  0  0  0  0  0  0  0  0  0  0  0
  1  2  1  0  0  0  0 
  2  3  1  0  0  0  0 
  2  4  1  0  0  0  0 
  3  5  1  0  0  0  0 
  5  6  1  0  0  0  0 
  6  7  2  0  0  0  0 
M  END
> <Name>
ISOBUTYL FORMATE

> <Source>
NIST2DMolFile

> <Tox>
1.603

> <CAS>
542-55-2

$$$$

  CDK

  5  4  0  0  0  0  0  0  0  0999 V2000
    0.8930    0.0000    0.0000 C   0  0  0  0  0  0  0  0  0  0  0  0
    1.7364    0.4961    0.0000 C   0  0  0  0  0  0  0  0  0  0  0  0
    0.0000    0.4961    0.0000 C   0  0  0  0  0  0  0  0  0  0  0  0
    2.5797    0.0000    0.0000 C   0  0  0  0  0  0  0  0  0  0  0  0
    3.4727    0.4961    0.0000 I   0  0  0  0  0  0  0  0  0  0  0  0
  1  2  1  0  0  0  0 
  1  3  1  0  0  0  0 
  2  4  1  0  0  0  0 
  4  5  1  0  0  0  0 
M  END
> <Name>
N-BUTYL IODIDE

> <Source>
NIST2DMolFile

> <Tox>
1.143

> <CAS>
542-69-8

$$$$

  CDK

  5  4  0  0  0  0  0  0  0  0999 V2000
    2.2970   -0.6707    0.0000 C   0  0  0  0  0  0  0  0  0  0  0  0
    3.4455   -0.0000    0.0000 C   0  0  0  0  0  0  0  0  0  0  0  0
    1.1485   -0.0000    0.0000 C   0  0  0  0  0  0  0  0  0  0  0  0
    4.5940   -0.6707    0.0000 Cl  0  0  0  0  0  0  0  0  0  0  0  0
    0.0000   -0.6707    0.0000 Cl  0  0  0  0  0  0  0  0  0  0  0  0
  1  2  2  0  0  0  0 
  1  3  1  0  0  0  0 
  2  4  1  0  0  0  0 
  5  3  1  0  0  0  0 
M  END
> <Name>
1,3-DICHLOROPROPENE (isomer mix)

> <Source>
DSSTox2DMolFile

> <Tox>
1.531

> <CAS>
542-75-6

$$$$

  CDK

  5  4  0  0  0  0  0  0  0  0999 V2000
    0.0000    0.0000    0.0000 C   0  0  0  0  0  0  0  0  0  0  0  0
    0.8737    0.4625    0.0000 C   0  0  0  0  0  0  0  0  0  0  0  0
    1.7474    0.0000    0.0000 N   0  0  0  0  0  0  0  0  0  0  0  0
    2.6725    0.4625    0.0000 C   0  0  0  0  0  0  0  0  0  0  0  0
    3.5462    0.0000    0.0000 S   0  0  0  0  0  0  0  0  0  0  0  0
  1  2  1  0  0  0  0 
  2  3  1  0  0  0  0 
  3  4  2  0  0  0  0 
  4  5  2  0  0  0  0 
M  END
> <Name>
ETHYL ISOTHIOCYANATE

> <Source>
NIST2DMolFile

> <Tox>
1.057

> <CAS>
542-85-8

$$$$

  CDK

  5  4  0  0  0  0  0  0  0  0999 V2000
    0.0000   -0.6638    0.0000 Cl  0  0  0  0  0  0  0  0  0  0  0  0
    1.1525   -0.0000    0.0000 C   0  0  0  0  0  0  0  0  0  0  0  0
    2.3050   -0.6638    0.0000 O   0  0  0  0  0  0  0  0  0  0  0  0
    3.4575   -0.0000    0.0000 C   0  0  0  0  0  0  0  0  0  0  0  0
    4.6099   -0.6638    0.0000 Cl  0  0  0  0  0  0  0  0  0  0  0  0
  1  2  1  0  0  0  0 
  2  3  1  0  0  0  0 
  3  4  1  0  0  0  0 
  4  5  1  0  0  0  0 
M  END
> <Name>
BIS(CHLOROMETHYL) ETHER

> <Source>
DSSTox2DMolFile

> <Tox>
1.468

> <CAS>
542-88-1

$$$$

  CDK

  8  7  0  0  0  0  0  0  0  0999 V2000
    0.0000    0.0000    0.0000 C   0  0  0  0  0  0  0  0  0  0  0  0
    0.8689    0.4600    0.0000 C   0  0  0  0  0  0  0  0  0  0  0  0
    1.7378    0.0000    0.0000 C   0  0  0  0  0  0  0  0  0  0  0  0
    0.8689    1.4823    0.0000 C   0  0  0  0  0  0  0  0  0  0  0  0
    2.5556    0.4600    0.0000 O   0  0  0  0  0  0  0  0  0  0  0  0
    3.5779    0.4600    0.0000 C   0  0  0  0  0  0  0  0  0  0  0  0
    3.5779    1.4823    0.0000 O   0  0  0  0  0  0  0  0  0  0  0  0
    4.4979    0.0000    0.0000 Cl  0  0  0  0  0  0  0  0  0  0  0  0
  1  2  1  0  0  0  0 
  2  3  1  0  0  0  0 
  2  4  1  0  0  0  0 
  3  5  1  0  0  0  0 
  5  6  1  0  0  0  0 
  6  7  2  0  0  0  0 
  6  8  1  0  0  0  0 
M  END
> <Name>
Carbonochloridic acid, 2-methylpropyl ester

> <Source>
NIST2DMolFile

> <Tox>
0.922

> <CAS>
543-27-1

$$$$

  CDK

  8  7  0  0  0  0  0  0  0  0999 V2000
    1.7121    1.5107    0.0000 C   0  0  0  0  0  0  0  0  0  0  0  0
    2.6185    1.0071    0.0000 O   0  0  0  0  0  0  0  0  0  0  0  0
    0.8561    1.0071    0.0000 C   0  0  0  0  0  0  0  0  0  0  0  0
    3.4746    1.5611    0.0000 N   0  0  0  0  0  0  0  0  0  0  0  0
    0.8561    0.0000    0.0000 C   0  0  0  0  0  0  0  0  0  0  0  0
    0.0000    1.5107    0.0000 C   0  0  0  0  0  0  0  0  0  0  0  0
    3.4746    2.5178    0.0000 O   0  0  0  0  0  0  0  0  0  0  0  0
    4.3307    1.0575    0.0000 O   0  0  0  0  0  0  0  0  0  0  0  0
  1  2  1  0  0  0  0 
  1  3  1  0  0  0  0 
  2  4  1  0  0  0  0 
  3  5  1  0  0  0  0 
  3  6  1  0  0  0  0 
  4  7  2  0  0  0  0 
  4  8  2  0  0  0  0 
M  END
> <Name>
ISOBUTYL NITRATE

> <Source>
NIST2DMolFile

> <Tox>
0.919

> <CAS>
543-29-3

$$$$

  CDK

  6  5  0  0  0  0  0  0  0  0999 V2000
    3.1981    1.9337    3.7459 C   0  0  0  0  0  0  0  0  0  0  0  0
    2.8751    1.5570    2.3093 C   0  0  0  0  0  0  0  0  0  0  0  0
    4.6754    2.1761    3.9454 C   0  0  0  0  0  0  0  0  0  0  0  0
    1.3916    1.2787    2.1296 C   0  0  0  0  0  0  0  0  0  0  0  0
    5.5610    0.6391    3.7652 Cl  0  0  0  0  0  0  0  0  0  0  0  0
    1.0707    0.9002    0.7015 C   0  0  0  0  0  0  0  0  0  0  0  0
  1  2  1  0  0  0  0 
  1  3  1  0  0  0  0 
  2  4  1  0  0  0  0 
  3  5  1  0  0  0  0 
  4  6  1  0  0  0  0 
M  END
> <Name>
1-CHLOROPENTANE

> <Source>
NIST3DMolFile

> <Tox>
1.517

> <CAS>
543-59-9

$$$$

  CDK

 11 10  0  0  0  0  0  0  0  0999 V2000
    1.7041    1.5036    0.0000 C   0  0  0  0  0  0  0  0  0  0  0  0
    2.6062    1.0024    0.0000 C   0  0  0  0  0  0  0  0  0  0  0  0
    0.8520    1.0024    0.0000 C   0  0  0  0  0  0  0  0  0  0  0  0
    3.4583    1.5036    0.0000 O   0  0  0  0  0  0  0  0  0  0  0  0
    0.8520    0.0000    0.0000 C   0  0  0  0  0  0  0  0  0  0  0  0
    0.0000    1.5036    0.0000 C   0  0  0  0  0  0  0  0  0  0  0  0
    4.3103    1.0024    0.0000 C   0  0  0  0  0  0  0  0  0  0  0  0
    5.2125    1.5036    0.0000 C   0  0  0  0  0  0  0  0  0  0  0  0
    6.0645    1.0024    0.0000 C   0  0  0  0  0  0  0  0  0  0  0  0
    6.0645    0.0000    0.0000 C   0  0  0  0  0  0  0  0  0  0  0  0
    6.9166    1.5036    0.0000 C   0  0  0  0  0  0  0  0  0  0  0  0
  1  2  1  0  0  0  0 
  1  3  1  0  0  0  0 
  2  4  1  0  0  0  0 
  3  5  1  0  0  0  0 
  3  6  1  0  0  0  0 
  4  7  1  0  0  0  0 
  7  8  1  0  0  0  0 
  8  9  1  0  0  0  0 
  9 10  1  0  0  0  0 
  9 11  1  0  0  0  0 
M  END
> <Name>
DIISOPENTYL ETHER

> <Source>
NIST2DMolFile

> <Tox>
0.146

> <CAS>
544-01-4

$$$$

  CDK

 11 10  0  0  0  0  0  0  0  0999 V2000
    1.7041    1.5036    0.0000 C   0  0  0  0  0  0  0  0  0  0  0  0
    2.6062    1.0024    0.0000 C   0  0  0  0  0  0  0  0  0  0  0  0
    0.8520    1.0024    0.0000 C   0  0  0  0  0  0  0  0  0  0  0  0
    3.4583    1.5036    0.0000 S   0  0  0  0  0  0  0  0  0  0  0  0
    0.8520    0.0000    0.0000 C   0  0  0  0  0  0  0  0  0  0  0  0
    0.0000    1.5036    0.0000 C   0  0  0  0  0  0  0  0  0  0  0  0
    4.3103    1.0024    0.0000 C   0  0  0  0  0  0  0  0  0  0  0  0
    5.2125    1.5036    0.0000 C   0  0  0  0  0  0  0  0  0  0  0  0
    6.0645    1.0024    0.0000 C   0  0  0  0  0  0  0  0  0  0  0  0
    6.0645    0.0000    0.0000 C   0  0  0  0  0  0  0  0  0  0  0  0
    6.9166    1.5036    0.0000 C   0  0  0  0  0  0  0  0  0  0  0  0
  1  2  1  0  0  0  0 
  1  3  1  0  0  0  0 
  2  4  1  0  0  0  0 
  3  5  1  0  0  0  0 
  3  6  1  0  0  0  0 
  4  7  1  0  0  0  0 
  7  8  1  0  0  0  0 
  8  9  1  0  0  0  0 
  9 10  1  0  0  0  0 
  9 11  1  0  0  0  0 
M  END
> <Name>
DIISOAMYL SULFIDE

> <Source>
NIST2DMolFile

> <Tox>
-0.496

> <CAS>
544-02-5

$$$$

  CDK

  7  6  0  0  0  0  0  0  0  0999 V2000
    1.7489    0.4997    0.0000 C   0  0  0  0  0  0  0  0  0  0  0  0
    2.5984    0.0000    0.0000 C   0  0  0  0  0  0  0  0  0  0  0  0
    0.8495    0.0000    0.0000 C   0  0  0  0  0  0  0  0  0  0  0  0
    3.4478    0.4997    0.0000 C   0  0  0  0  0  0  0  0  0  0  0  0
    0.0000    0.4997    0.0000 C   0  0  0  0  0  0  0  0  0  0  0  0
    4.3473    0.0000    0.0000 C   0  0  0  0  0  0  0  0  0  0  0  0
    5.1968    0.4997    0.0000 Cl  0  0  0  0  0  0  0  0  0  0  0  0
  1  2  1  0  0  0  0 
  1  3  1  0  0  0  0 
  2  4  1  0  0  0  0 
  3  5  1  0  0  0  0 
  4  6  1  0  0  0  0 
  6  7  1  0  0  0  0 
M  END
> <Name>
1-CHLOROHEXANE

> <Source>
NIST2DMolFile

> <Tox>
0.972

> <CAS>
544-10-5

$$$$

  CDK

  7  6  0  0  0  0  0  0  0  0999 V2000
    3.0288   -0.8117   -0.2204 N   0  0  0  0  0  0  0  0  0  0  0  0
    2.0359   -0.3961    0.2130 C   0  0  0  0  0  0  0  0  0  0  0  0
    0.7789    0.1318    0.7597 C   0  0  0  0  0  0  0  0  0  0  0  0
    0.3838   -0.6039    2.0399 C   0  0  0  0  0  0  0  0  0  0  0  0
   -0.9461   -0.0896    2.5903 C   0  0  0  0  0  0  0  0  0  0  0  0
   -1.3409   -0.8298    3.7961 C   0  0  0  0  0  0  0  0  0  0  0  0
   -1.6541   -1.4133    4.7489 N   0  0  0  0  0  0  0  0  0  0  0  0
  1  2  3  0  0  0  0 
  3  2  1  0  0  0  0 
  4  3  1  0  0  0  0 
  4  5  1  0  0  0  0 
  5  6  1  0  0  0  0 
  7  6  3  0  0  0  0 
M  END
> <Name>
PENTANEDINITRILE

> <Source>
Chemidplus3DMolFile

> <Tox>
-2.084

> <CAS>
544-13-8

$$$$

  CDK

  7  7  0  0  0  0  0  0  0  0999 V2000
    0.9402    1.2938   -0.0002 C   0  0  0  0  0  0  0  0  0  0  0  0
   -0.3657    1.5678   -0.0006 C   0  0  0  0  0  0  0  0  0  0  0  0
    1.6675    0.0050    0.0009 C   0  0  0  0  0  0  0  0  0  0  0  0
   -1.4915    0.6650    0.0004 C   0  0  0  0  0  0  0  0  0  0  0  0
    0.9482   -1.2884   -0.0004 C   0  0  0  0  0  0  0  0  0  0  0  0
   -1.4874   -0.6739    0.0005 C   0  0  0  0  0  0  0  0  0  0  0  0
   -0.3561   -1.5698   -0.0006 C   0  0  0  0  0  0  0  0  0  0  0  0
  1  2  2  0  0  0  0 
  1  3  1  0  0  0  0 
  2  4  1  0  0  0  0 
  5  3  1  0  0  0  0 
  4  6  2  0  0  0  0 
  7  5  2  0  0  0  0 
  6  7  1  0  0  0  0 
M  END
> <Name>
CYCLOHEPTATRIENE

> <Source>
DougDB3DMolFile

> <Tox>
1.371

> <CAS>
544-25-2

$$$$

  CDK

  9  8  0  0  0  0  0  0  0  0999 V2000
    0.0000   -0.6638    0.0000 C   0  0  0  0  0  0  0  0  0  0  0  0
    1.1525   -0.0000    0.0000 C   0  0  0  0  0  0  0  0  0  0  0  0
    2.3050   -0.6638    0.0000 C   0  0  0  0  0  0  0  0  0  0  0  0
    3.4575   -0.0000    0.0000 C   0  0  0  0  0  0  0  0  0  0  0  0
    4.6099   -0.6638    0.0000 S   0  0  0  0  0  0  0  0  0  0  0  0
    5.7624   -0.0000    0.0000 C   0  0  0  0  0  0  0  0  0  0  0  0
    6.9149   -0.6638    0.0000 C   0  0  0  0  0  0  0  0  0  0  0  0
    8.0674   -0.0000    0.0000 C   0  0  0  0  0  0  0  0  0  0  0  0
    9.2199   -0.6638    0.0000 C   0  0  0  0  0  0  0  0  0  0  0  0
  1  2  1  0  0  0  0 
  2  3  1  0  0  0  0 
  3  4  1  0  0  0  0 
  4  5  1  0  0  0  0 
  5  6  1  0  0  0  0 
  6  7  1  0  0  0  0 
  7  8  1  0  0  0  0 
  8  9  1  0  0  0  0 
M  END
> <Name>
Di-n-butyl sulfide

> <Source>
DSSTox2DMolFile

> <Tox>
0.079

> <CAS>
544-40-1

$$$$

  CDK

 16 15  0  0  0  0  0  0  0  0999 V2000
   12.6831   -0.0000    0.0000 O   0  0  0  0  0  0  0  0  0  0  0  0
   13.8375   -0.6746    0.0000 C   0  0  0  0  0  0  0  0  0  0  0  0
   14.9919   -0.0000    0.0000 O   0  0  0  0  0  0  0  0  0  0  0  0
   13.8375   -2.0089    0.0000 C   0  0  0  0  0  0  0  0  0  0  0  0
   12.6831   -2.6686    0.0000 C   0  0  0  0  0  0  0  0  0  0  0  0
   11.5287   -2.0089    0.0000 C   0  0  0  0  0  0  0  0  0  0  0  0
   10.3744   -2.6686    0.0000 C   0  0  0  0  0  0  0  0  0  0  0  0
    9.2200   -2.0089    0.0000 C   0  0  0  0  0  0  0  0  0  0  0  0
    8.0656   -2.6686    0.0000 C   0  0  0  0  0  0  0  0  0  0  0  0
    6.9262   -2.0089    0.0000 C   0  0  0  0  0  0  0  0  0  0  0  0
    5.7719   -2.6686    0.0000 C   0  0  0  0  0  0  0  0  0  0  0  0
    4.6175   -2.0089    0.0000 C   0  0  0  0  0  0  0  0  0  0  0  0
    3.4631   -2.6686    0.0000 C   0  0  0  0  0  0  0  0  0  0  0  0
    2.3087   -2.0089    0.0000 C   0  0  0  0  0  0  0  0  0  0  0  0
    1.1544   -2.6686    0.0000 C   0  0  0  0  0  0  0  0  0  0  0  0
    0.0000   -2.0089    0.0000 C   0  0  0  0  0  0  0  0  0  0  0  0
  1  2  2  0  0  0  0 
  2  3  1  0  0  0  0 
  2  4  1  0  0  0  0 
  4  5  1  0  0  0  0 
  5  6  1  0  0  0  0 
  6  7  1  0  0  0  0 
  7  8  1  0  0  0  0 
  8  9  1  0  0  0  0 
  9 10  1  0  0  0  0 
 10 11  1  0  0  0  0 
 11 12  1  0  0  0  0 
 12 13  1  0  0  0  0 
 13 14  1  0  0  0  0 
 14 15  1  0  0  0  0 
 15 16  1  0  0  0  0 
M  END
> <Name>
TETRADECANOIC ACID

> <Source>
DSSTox2DMolFile

> <Tox>
-5.854

> <CAS>
544-63-8

$$$$

  CDK

 16 15  0  0  0  0  0  0  0  0999 V2000
    0.0000   -0.0000    0.0000 C   0  0  0  0  0  0  0  0  0  0  0  0
    1.1365   -0.6716    0.0000 C   0  0  0  0  0  0  0  0  0  0  0  0
    2.3074   -0.0000    0.0000 C   0  0  0  0  0  0  0  0  0  0  0  0
    3.4439   -0.6716    0.0000 C   0  0  0  0  0  0  0  0  0  0  0  0
    4.5976   -0.0000    0.0000 C   0  0  0  0  0  0  0  0  0  0  0  0
    5.7341   -0.6716    0.0000 C   0  0  0  0  0  0  0  0  0  0  0  0
    6.8879   -0.0000    0.0000 C   0  0  0  0  0  0  0  0  0  0  0  0
    8.0244   -0.6716    0.0000 C   0  0  0  0  0  0  0  0  0  0  0  0
    9.1953   -0.0000    0.0000 C   0  0  0  0  0  0  0  0  0  0  0  0
   10.3318   -0.6716    0.0000 C   0  0  0  0  0  0  0  0  0  0  0  0
   11.4855   -0.0000    0.0000 C   0  0  0  0  0  0  0  0  0  0  0  0
   12.6220   -0.6716    0.0000 C   0  0  0  0  0  0  0  0  0  0  0  0
   13.7757   -0.0000    0.0000 C   0  0  0  0  0  0  0  0  0  0  0  0
   14.9122   -0.6716    0.0000 C   0  0  0  0  0  0  0  0  0  0  0  0
   16.0832   -0.0000    0.0000 C   0  0  0  0  0  0  0  0  0  0  0  0
   17.2197   -0.6716    0.0000 C   0  0  0  0  0  0  0  0  0  0  0  0
  1  2  1  0  0  0  0 
  2  3  1  0  0  0  0 
  3  4  1  0  0  0  0 
  4  5  1  0  0  0  0 
  5  6  1  0  0  0  0 
  6  7  1  0  0  0  0 
  7  8  1  0  0  0  0 
  8  9  1  0  0  0  0 
  9 10  1  0  0  0  0 
 10 11  1  0  0  0  0 
 11 12  1  0  0  0  0 
 12 13  1  0  0  0  0 
 13 14  1  0  0  0  0 
 14 15  1  0  0  0  0 
 15 16  1  0  0  0  0 
M  END
> <Name>
N-HEXADECANE

> <Source>
DSSTox2DMolFile

> <Tox>
-2.845

> <CAS>
544-76-3

$$$$

  CDK

 17 16  0  0  0  0  0  0  0  0999 V2000
  -10.6704    0.6452   -0.0176 I   0  0  0  0  0  0  0  0  0  0  0  0
   -8.9032   -0.5657   -0.0583 C   0  0  0  0  0  0  0  0  0  0  0  0
   -7.6517    0.3118   -0.0286 C   0  0  0  0  0  0  0  0  0  0  0  0
   -6.3502   -0.4950   -0.0652 C   0  0  0  0  0  0  0  0  0  0  0  0
   -5.0927    0.3741   -0.0059 C   0  0  0  0  0  0  0  0  0  0  0  0
   -3.8249   -0.4843   -0.0288 C   0  0  0  0  0  0  0  0  0  0  0  0
   -2.5690    0.3846    0.0639 C   0  0  0  0  0  0  0  0  0  0  0  0
   -1.2659   -0.4206    0.0783 C   0  0  0  0  0  0  0  0  0  0  0  0
    0.0273    0.4017    0.0847 C   0  0  0  0  0  0  0  0  0  0  0  0
    1.2929   -0.4571    0.0336 C   0  0  0  0  0  0  0  0  0  0  0  0
    2.5869    0.3638    0.0293 C   0  0  0  0  0  0  0  0  0  0  0  0
    3.8897   -0.4411    0.0647 C   0  0  0  0  0  0  0  0  0  0  0  0
    5.1483    0.4278    0.0022 C   0  0  0  0  0  0  0  0  0  0  0  0
    6.4135   -0.4316    0.0536 C   0  0  0  0  0  0  0  0  0  0  0  0
    7.7070    0.3844   -0.0307 C   0  0  0  0  0  0  0  0  0  0  0  0
    9.0038   -0.4284   -0.0702 C   0  0  0  0  0  0  0  0  0  0  0  0
   10.2585    0.4303   -0.1050 C   0  0  0  0  0  0  0  0  0  0  0  0
  1  2  1  0  0  0  0 
  3  2  1  0  0  0  0 
  4  3  1  0  0  0  0 
  5  4  1  0  0  0  0 
  6  5  1  0  0  0  0 
  7  6  1  0  0  0  0 
  8  7  1  0  0  0  0 
  9  8  1  0  0  0  0 
  9 10  1  0  0  0  0 
 10 11  1  0  0  0  0 
 11 12  1  0  0  0  0 
 12 13  1  0  0  0  0 
 13 14  1  0  0  0  0 
 14 15  1  0  0  0  0 
 15 16  1  0  0  0  0 
 16 17  1  0  0  0  0 
M  END
> <Name>
1-IODOHEXADECANE

> <Source>
Chemidplus3DMolFile

> <Tox>
-4.783

> <CAS>
544-77-4

$$$$

  CDK

  6  5  0  0  0  0  0  0  0  0999 V2000
    0.0000   -2.6608    0.0000 Cl  0  0  0  0  0  0  0  0  0  0  0  0
    1.3284   -2.6608    0.0000 C   0  0  0  0  0  0  0  0  0  0  0  0
    2.6608   -2.6608    0.0000 Cl  0  0  0  0  0  0  0  0  0  0  0  0
    1.3284   -3.9892    0.0000 Cl  0  0  0  0  0  0  0  0  0  0  0  0
    1.3284   -1.3284    0.0000 C   0  0  0  0  0  0  0  0  0  0  0  0
    1.3284   -0.0000    0.0000 N   0  0  0  0  0  0  0  0  0  0  0  0
  1  2  1  0  0  0  0 
  2  3  1  0  0  0  0 
  2  4  1  0  0  0  0 
  2  5  1  0  0  0  0 
  5  6  3  0  0  0  0 
M  END
> <Name>
TRICHLOROACETONITRILE

> <Source>
DSSTox2DMolFile

> <Tox>
1.870

> <CAS>
545-06-2

$$$$

  CDK

  7  6  0  0  0  0  0  0  0  0999 V2000
    0.2534    0.0454    0.1786 C   0  0  0  0  0  0  0  0  0  0  0  0
   -1.1151   -0.0922   -0.4743 C   0  0  0  0  0  0  0  0  0  0  0  0
    0.5148    0.2919    1.3387 O   0  0  0  0  0  0  0  0  0  0  0  0
    1.2821   -0.1453   -0.7029 O   0  0  0  0  0  0  0  0  0  0  0  0
   -1.8929    1.2032   -0.3101 C   0  0  0  0  0  0  0  0  0  0  0  0
   -1.8604   -1.2610    0.1495 C   0  0  0  0  0  0  0  0  0  0  0  0
    2.6091   -0.0508   -0.2321 C   0  0  0  0  0  0  0  0  0  0  0  0
  1  2  1  0  0  0  0 
  1  3  2  0  0  0  0 
  1  4  1  0  0  0  0 
  2  5  1  0  0  0  0 
  2  6  1  0  0  0  0 
  4  7  1  0  0  0  0 
M  END
> <Name>
METHYL ISOBUTYRATE

> <Source>
DougDB3DMolFile

> <Tox>
1.693

> <CAS>
547-63-7

$$$$

  CDK

 14 16  0  0  0  0  0  0  0  0999 V2000
    2.8176   -3.2370   -2.3361 O   0  0  0  0  0  0  0  0  0  0  0  0
    3.5300   -2.3473   -1.8884 C   0  0  0  0  0  0  0  0  0  0  0  0
    2.9707   -1.2070   -1.1221 C   0  0  0  0  0  0  0  0  0  0  0  0
    4.9992   -2.3749   -2.0971 C   0  0  0  0  0  0  0  0  0  0  0  0
    3.8392   -0.2142   -0.6319 C   0  0  0  0  0  0  0  0  0  0  0  0
    1.5934   -1.1331   -0.8972 C   0  0  0  0  0  0  0  0  0  0  0  0
    5.7835   -1.4066   -1.6108 C   0  0  0  0  0  0  0  0  0  0  0  0
    5.2283   -0.2815   -0.8543 C   0  0  0  0  0  0  0  0  0  0  0  0
    3.3005    0.8713    0.0985 C   0  0  0  0  0  0  0  0  0  0  0  0
    1.0699   -0.0621   -0.1776 C   0  0  0  0  0  0  0  0  0  0  0  0
    6.0698    0.7192   -0.3558 C   0  0  0  0  0  0  0  0  0  0  0  0
    1.9148    0.9326    0.3168 C   0  0  0  0  0  0  0  0  0  0  0  0
    4.1630    1.8637    0.5891 C   0  0  0  0  0  0  0  0  0  0  0  0
    5.5370    1.7869    0.3629 C   0  0  0  0  0  0  0  0  0  0  0  0
  1  2  2  0  0  0  0 
  3  2  1  0  0  0  0 
  2  4  1  0  0  0  0 
  5  3  1  0  0  0  0 
  3  6  2  0  0  0  0 
  7  4  2  0  0  0  0 
  5  8  1  0  0  0  0 
  5  9  2  0  0  0  0 
  6 10  1  0  0  0  0 
  8  7  1  0  0  0  0 
  8 11  2  0  0  0  0 
  9 12  1  0  0  0  0 
  9 13  1  0  0  0  0 
 12 10  2  0  0  0  0 
 11 14  1  0  0  0  0 
 13 14  2  0  0  0  0 
M  END
> <Name>
Perinaphthenone

> <Source>
Chemidplus3DMolFile

> <Tox>
-5.167

> <CAS>
548-39-0

$$$$

  CDK

 10 10  0  0  0  0  0  0  0  0999 V2000
    1.7442    2.9900    0.0000 F   0  0  0  0  0  0  0  0  0  0  0  0
    1.7442    1.9934    0.0000 C   0  0  0  0  0  0  0  0  0  0  0  0
    2.5914    1.4950    0.0000 C   0  0  0  0  0  0  0  0  0  0  0  0
    0.8970    1.4950    0.0000 C   0  0  0  0  0  0  0  0  0  0  0  0
    3.4884    1.9934    0.0000 F   0  0  0  0  0  0  0  0  0  0  0  0
    2.5914    0.4983    0.0000 C   0  0  0  0  0  0  0  0  0  0  0  0
    0.0000    1.9934    0.0000 F   0  0  0  0  0  0  0  0  0  0  0  0
    0.8970    0.4983    0.0000 C   0  0  0  0  0  0  0  0  0  0  0  0
    3.4884    0.0000    0.0000 F   0  0  0  0  0  0  0  0  0  0  0  0
    1.7442    0.0000    0.0000 C   0  0  0  0  0  0  0  0  0  0  0  0
  1  2  1  0  0  0  0 
  2  3  2  0  0  0  0 
  4  2  1  0  0  0  0 
  3  5  1  0  0  0  0 
  3  6  1  0  0  0  0 
  4  7  1  0  0  0  0 
  8  4  2  0  0  0  0 
  6  9  1  0  0  0  0 
  6 10  2  0  0  0  0 
 10  8  1  0  0  0  0 
M  END
> <Name>
1,2,3,4-TETRAFLUOROBENZENE

> <Source>
NIST2DMolFile

> <Tox>
1.695

> <CAS>
551-62-2

$$$$

  CDK

 14 15  0  0  0  0  0  0  0  0999 V2000
    4.6038   -0.0000    0.0000 O   0  0  0  0  0  0  0  0  0  0  0  0
    4.8816   -1.2985    0.0000 C   0  0  0  0  0  0  0  0  0  0  0  0
    6.0968   -1.8402    0.0000 O   0  0  0  0  0  0  0  0  0  0  0  0
    3.9928   -2.2846    0.0000 C   0  0  0  0  0  0  0  0  0  0  0  0
    5.9579   -3.1595    0.0000 C   0  0  0  0  0  0  0  0  0  0  0  0
    4.6525   -3.4373    0.0000 C   0  0  0  0  0  0  0  0  0  0  0  0
    2.6595   -2.2846    0.0000 C   0  0  0  0  0  0  0  0  0  0  0  0
    6.9440   -4.0483    0.0000 O   0  0  0  0  0  0  0  0  0  0  0  0
    3.9928   -4.5900    0.0000 C   0  0  0  0  0  0  0  0  0  0  0  0
    1.9929   -3.4373    0.0000 C   0  0  0  0  0  0  0  0  0  0  0  0
    2.6595   -4.5900    0.0000 C   0  0  0  0  0  0  0  0  0  0  0  0
    0.6666   -3.4373    0.0000 C   0  0  0  0  0  0  0  0  0  0  0  0
    0.0000   -4.5900    0.0000 O   0  0  0  0  0  0  0  0  0  0  0  0
    0.0000   -2.2846    0.0000 O   0  0  0  0  0  0  0  0  0  0  0  0
  1  2  2  0  0  0  0 
  2  3  1  0  0  0  0 
  2  4  1  0  0  0  0 
  3  5  1  0  0  0  0 
  6  4  1  0  0  0  0 
  7  4  2  0  0  0  0 
  5  8  2  0  0  0  0 
  5  6  1  0  0  0  0 
  6  9  2  0  0  0  0 
 10  7  1  0  0  0  0 
  9 11  1  0  0  0  0 
 11 10  2  0  0  0  0 
 10 12  1  0  0  0  0 
 12 13  2  0  0  0  0 
 12 14  1  0  0  0  0 
M  END
> <Name>
TRIMELLITIC ANHYDRIDE

> <Source>
DSSTox2DMolFile

> <Tox>
-5.006

> <CAS>
552-30-7

$$$$

  CDK

 14 15  0  0  0  0  0  0  0  0999 V2000
    0.0000    1.5146    0.0000 C   0  0  0  0  0  0  0  0  0  0  0  0
    0.8583    2.0195    0.0000 C   0  0  0  0  0  0  0  0  0  0  0  0
    0.0000    0.5049    0.0000 C   0  0  0  0  0  0  0  0  0  0  0  0
    1.7166    1.5146    0.0000 C   0  0  0  0  0  0  0  0  0  0  0  0
    0.8583    0.0000    0.0000 C   0  0  0  0  0  0  0  0  0  0  0  0
    1.7166    0.5049    0.0000 C   0  0  0  0  0  0  0  0  0  0  0  0
    2.5749    2.0195    0.0000 N   0  0  0  0  0  0  0  0  0  0  0  0
    3.4837    1.5146    0.0000 C   0  0  0  0  0  0  0  0  0  0  0  0
    2.5749    2.9788    0.0000 C   0  0  0  0  0  0  0  0  0  0  0  0
    3.4837    0.5049    0.0000 C   0  0  0  0  0  0  0  0  0  0  0  0
    4.3420    2.0195    0.0000 C   0  0  0  0  0  0  0  0  0  0  0  0
    4.3420    0.0000    0.0000 C   0  0  0  0  0  0  0  0  0  0  0  0
    5.2003    1.5146    0.0000 C   0  0  0  0  0  0  0  0  0  0  0  0
    5.2003    0.5049    0.0000 C   0  0  0  0  0  0  0  0  0  0  0  0
  1  2  2  0  0  0  0 
  3  1  1  0  0  0  0 
  2  4  1  0  0  0  0 
  5  3  2  0  0  0  0 
  4  6  2  0  0  0  0 
  4  7  1  0  0  0  0 
  6  5  1  0  0  0  0 
  7  8  1  0  0  0  0 
  7  9  1  0  0  0  0 
 10  8  2  0  0  0  0 
  8 11  1  0  0  0  0 
 12 10  1  0  0  0  0 
 11 13  2  0  0  0  0 
 14 12  2  0  0  0  0 
 13 14  1  0  0  0  0 
M  END
> <Name>
DIPHENYL METHYLAMINE

> <Source>
NIST2DMolFile

> <Tox>
-2.507

> <CAS>
552-82-9

$$$$

  CDK

 11 11  0  0  0  0  0  0  0  0999 V2000
    1.9971   -2.3043    0.0000 C   0  0  0  0  0  0  0  0  0  0  0  0
    2.6581   -1.1545    0.0000 C   0  0  0  0  0  0  0  0  0  0  0  0
    2.6581   -3.4588    0.0000 C   0  0  0  0  0  0  0  0  0  0  0  0
    0.6657   -2.3043    0.0000 C   0  0  0  0  0  0  0  0  0  0  0  0
    1.9971   -0.0000    0.0000 O   0  0  0  0  0  0  0  0  0  0  0  0
    3.9895   -3.4588    0.0000 N   0  0  0  0  0  0  0  0  0  0  0  0
    1.9971   -4.6086    0.0000 C   0  0  0  0  0  0  0  0  0  0  0  0
    0.0000   -3.4588    0.0000 C   0  0  0  0  0  0  0  0  0  0  0  0
    4.6552   -2.3043    0.0000 O   0  0  0  0  0  0  0  0  0  0  0  0
    4.6552   -4.6086    0.0000 O   0  0  0  0  0  0  0  0  0  0  0  0
    0.6657   -4.6086    0.0000 C   0  0  0  0  0  0  0  0  0  0  0  0
  1  2  1  0  0  0  0 
  1  3  2  0  0  0  0 
  1  4  1  0  0  0  0 
  2  5  2  0  0  0  0 
  3  6  1  0  0  0  0 
  3  7  1  0  0  0  0 
  8  4  2  0  0  0  0 
  6  9  1  0  0  0  0 
  6 10  2  0  0  0  0 
  7 11  2  0  0  0  0 
 11  8  1  0  0  0  0 
M  CHG  1   6   1
M  CHG  1   9  -1
M  END
> <Name>
O-NITROBENZALDEHYDE

> <Source>
DSSTox2DMolFile

> <Tox>
-1.747

> <CAS>
552-89-6

$$$$

  CDK

  8  7  0  0  0  0  0  0  0  0999 V2000
    2.6096    1.5056    0.0000 C   0  0  0  0  0  0  0  0  0  0  0  0
    1.7063    1.0037    0.0000 C   0  0  0  0  0  0  0  0  0  0  0  0
    3.4628    1.0037    0.0000 O   0  0  0  0  0  0  0  0  0  0  0  0
    2.6096    2.5093    0.0000 O   0  0  0  0  0  0  0  0  0  0  0  0
    0.8531    1.5056    0.0000 O   0  0  0  0  0  0  0  0  0  0  0  0
    1.7063    0.0000    0.0000 O   0  0  0  0  0  0  0  0  0  0  0  0
    4.3159    1.5056    0.0000 C   0  0  0  0  0  0  0  0  0  0  0  0
    0.0000    1.0037    0.0000 C   0  0  0  0  0  0  0  0  0  0  0  0
  1  2  1  0  0  0  0 
  1  3  1  0  0  0  0 
  1  4  2  0  0  0  0 
  2  5  1  0  0  0  0 
  2  6  2  0  0  0  0 
  3  7  1  0  0  0  0 
  5  8  1  0  0  0  0 
M  END
> <Name>
METHYL OXALATE

> <Source>
NIST2DMolFile

> <Tox>
0.057

> <CAS>
553-90-2

$$$$

  CDK

  6  5  0  0  0  0  0  0  0  0999 V2000
    2.3105   -1.3355    0.0000 C   0  0  0  0  0  0  0  0  0  0  0  0
    3.4658   -1.9917    0.0000 C   0  0  0  0  0  0  0  0  0  0  0  0
    1.1553   -1.9917    0.0000 O   0  0  0  0  0  0  0  0  0  0  0  0
    2.3105   -0.0000    0.0000 O   0  0  0  0  0  0  0  0  0  0  0  0
    4.6211   -1.3355    0.0000 C   0  0  0  0  0  0  0  0  0  0  0  0
    0.0000   -1.3355    0.0000 C   0  0  0  0  0  0  0  0  0  0  0  0
  1  2  1  0  0  0  0 
  1  3  1  0  0  0  0 
  1  4  2  0  0  0  0 
  2  5  1  0  0  0  0 
  3  6  1  0  0  0  0 
M  END
> <Name>
METHYL PROPIONATE

> <Source>
DSSTox2DMolFile

> <Tox>
1.924

> <CAS>
554-12-1

$$$$

  CDK

  6  6  0  0  0  0  0  0  0  0999 V2000
   -0.8244   -0.2170    0.0022 C   0  0  0  0  0  0  0  0  0  0  0  0
   -0.1190   -1.3910    0.0021 C   0  0  0  0  0  0  0  0  0  0  0  0
    0.2406    1.1628    0.0009 S   0  0  0  0  0  0  0  0  0  0  0  0
   -2.2953   -0.1110   -0.0021 C   0  0  0  0  0  0  0  0  0  0  0  0
    1.3008   -1.1827   -0.0011 C   0  0  0  0  0  0  0  0  0  0  0  0
    1.6303    0.1416   -0.0020 C   0  0  0  0  0  0  0  0  0  0  0  0
  1  2  2  0  0  0  0 
  1  3  1  0  0  0  0 
  1  4  1  0  0  0  0 
  2  5  1  0  0  0  0 
  6  3  1  0  0  0  0 
  5  6  2  0  0  0  0 
M  END
> <Name>
2-METHYLTHIOPHENE

> <Source>
DougDB3DMolFile

> <Tox>
1.396

> <CAS>
554-14-3

$$$$

  CDK

 10 10  0  0  0  0  0  0  0  0999 V2000
    0.0000    0.0000    0.0000 C   0  0  0  0  0  0  0  0  0  0  0  0
   -0.5800    1.3600    0.3600 C   0  0  0  0  0  0  0  0  0  0  0  0
   -1.9800    1.2800    0.9200 C   0  0  0  0  0  0  0  0  0  0  0  0
    0.3800    2.1800    1.2400 C   0  0  0  0  0  0  0  0  0  0  0  0
   -0.2200    3.5600    1.5600 C   0  0  0  0  0  0  0  0  0  0  0  0
    1.7200    2.3000    0.5600 C   0  0  0  0  0  0  0  0  0  0  0  0
   -0.2000    4.5000    0.3600 C   0  0  0  0  0  0  0  0  0  0  0  0
    2.0800    3.4000   -0.1400 C   0  0  0  0  0  0  0  0  0  0  0  0
    1.1600    4.5400   -0.3000 C   0  0  0  0  0  0  0  0  0  0  0  0
    1.5200    5.6200   -1.0200 C   0  0  0  0  0  0  0  0  0  0  0  0
  1  2  1  0  0  0  0 
  2  3  1  0  0  0  0 
  2  4  1  0  0  0  0 
  4  5  1  0  0  0  0 
  4  6  1  0  0  0  0 
  5  7  1  0  0  0  0 
  8  6  2  0  0  0  0 
  7  9  1  0  0  0  0 
  9  8  1  0  0  0  0 
  9 10  2  0  0  0  0 
M  END
> <Name>
BETA-PHELLANDRENE

> <Source>
NIH3DMolFile

> <Tox>
0.201

> <CAS>
555-10-2

$$$$

  CDK

 10  9  0  0  0  0  0  0  0  0999 V2000
    2.0279    2.5856    0.0000 N   0  0  0  0  0  0  0  0  0  0  0  0
    1.5716    1.7237    0.0000 C   0  0  0  0  0  0  0  0  0  0  0  0
    3.0419    2.5856    0.0000 C   0  0  0  0  0  0  0  0  0  0  0  0
    1.5716    3.3967    0.0000 C   0  0  0  0  0  0  0  0  0  0  0  0
    2.0786    0.8619    0.0000 C   0  0  0  0  0  0  0  0  0  0  0  0
    3.4981    3.4474    0.0000 C   0  0  0  0  0  0  0  0  0  0  0  0
    0.5577    3.3967    0.0000 C   0  0  0  0  0  0  0  0  0  0  0  0
    1.5716    0.0000    0.0000 Cl  0  0  0  0  0  0  0  0  0  0  0  0
    4.5628    3.4474    0.0000 Cl  0  0  0  0  0  0  0  0  0  0  0  0
    0.0000    4.2586    0.0000 Cl  0  0  0  0  0  0  0  0  0  0  0  0
  1  2  1  0  0  0  0 
  1  3  1  0  0  0  0 
  1  4  1  0  0  0  0 
  2  5  1  0  0  0  0 
  3  6  1  0  0  0  0 
  4  7  1  0  0  0  0 
  8  5  1  0  0  0  0 
  9  6  1  0  0  0  0 
 10  7  1  0  0  0  0 
M  END
> <Name>
TRIS(BETA-CHLOROETHYL)AMINE

> <Source>
NIST2DMolFile

> <Tox>
-1.959

> <CAS>
555-77-1

$$$$

  CDK

  4  3  0  0  0  0  0  0  0  0999 V2000
    1.9918    0.0000    0.0000 S   0  0  0  0  0  0  0  0  0  0  0  0
    0.9959    0.0000    0.0000 C   0  0  0  0  0  0  0  0  0  0  0  0
    2.5395    0.8465    0.0000 C   0  0  0  0  0  0  0  0  0  0  0  0
    0.0000    0.0000    0.0000 N   0  0  0  0  0  0  0  0  0  0  0  0
  1  2  1  0  0  0  0 
  1  3  1  0  0  0  0 
  2  4  3  0  0  0  0 
M  END
> <Name>
METHYL THIOCYANATE

> <Source>
NIST2DMolFile

> <Tox>
1.083

> <CAS>
556-64-9

$$$$

  CDK

 16 16  0  0  0  0  0  0  0  0999 V2000
    3.5932   -1.3109    0.0000 O   0  0  0  0  0  0  0  0  0  0  0  0
    4.5354   -2.2589    0.0000 Si  0  0  0  0  0  0  0  0  0  0  0  0
    2.2589   -1.3109    0.0000 Si  0  0  0  0  0  0  0  0  0  0  0  0
    4.5354   -3.5874    0.0000 O   0  0  0  0  0  0  0  0  0  0  0  0
    5.8521   -2.4169    0.0000 C   0  0  0  0  0  0  0  0  0  0  0  0
    5.3371   -1.1997    0.0000 C   0  0  0  0  0  0  0  0  0  0  0  0
    1.3167   -2.2414    0.0000 O   0  0  0  0  0  0  0  0  0  0  0  0
    1.1997   -0.4974    0.0000 C   0  0  0  0  0  0  0  0  0  0  0  0
    2.4345   -0.0000    0.0000 C   0  0  0  0  0  0  0  0  0  0  0  0
    3.5932   -4.5178    0.0000 Si  0  0  0  0  0  0  0  0  0  0  0  0
    1.3167   -3.5874    0.0000 Si  0  0  0  0  0  0  0  0  0  0  0  0
    2.2589   -4.5178    0.0000 O   0  0  0  0  0  0  0  0  0  0  0  0
    3.4176   -5.8346    0.0000 C   0  0  0  0  0  0  0  0  0  0  0  0
    4.6524   -5.3371    0.0000 C   0  0  0  0  0  0  0  0  0  0  0  0
    0.0000   -3.4118    0.0000 C   0  0  0  0  0  0  0  0  0  0  0  0
    0.5150   -4.6349    0.0000 C   0  0  0  0  0  0  0  0  0  0  0  0
  1  2  1  0  0  0  0 
  1  3  1  0  0  0  0 
  2  4  1  0  0  0  0 
  2  5  1  0  0  0  0 
  2  6  1  0  0  0  0 
  7  3  1  0  0  0  0 
  3  8  1  0  0  0  0 
  3  9  1  0  0  0  0 
  4 10  1  0  0  0  0 
 11  7  1  0  0  0  0 
 10 12  1  0  0  0  0 
 10 13  1  0  0  0  0 
 10 14  1  0  0  0  0 
 12 11  1  0  0  0  0 
 11 15  1  0  0  0  0 
 11 16  1  0  0  0  0 
M  END
> <Name>
OCTAMETHYLTETRASILOXANE

> <Source>
DSSTox2DMolFile

> <Tox>
0.021

> <CAS>
556-67-2

$$$$

  CDK

 32 32  0  0  0  0  0  0  0  0999 V2000
    2.4244   -1.6012    0.0000 C   0  0  0  0  0  0  0  0  0  0  0  0
    1.5847   -1.4307    0.0000 Si  0  0  0  0  0  0  0  0  0  0  0  0
    2.0994   -2.1299    0.0000 C   0  0  0  0  0  0  0  0  0  0  0  0
    1.9639   -0.7190    0.0000 O   0  0  0  0  0  0  0  0  0  0  0  0
    0.8802   -1.8971    0.0000 O   0  0  0  0  0  0  0  0  0  0  0  0
    2.1322    0.1089    0.0000 Si  0  0  0  0  0  0  0  0  0  0  0  0
    0.1089   -2.1322    0.0000 Si  0  0  0  0  0  0  0  0  0  0  0  0
    2.8466    0.5821    0.0000 C   0  0  0  0  0  0  0  0  0  0  0  0
    2.9906   -0.0216    0.0000 C   0  0  0  0  0  0  0  0  0  0  0  0
    1.8971    0.8802    0.0000 O   0  0  0  0  0  0  0  0  0  0  0  0
   -0.7190   -1.9639    0.0000 O   0  0  0  0  0  0  0  0  0  0  0  0
    0.5821   -2.8466    0.0000 C   0  0  0  0  0  0  0  0  0  0  0  0
   -0.0216   -2.9906    0.0000 C   0  0  0  0  0  0  0  0  0  0  0  0
    1.4307    1.5847    0.0000 Si  0  0  0  0  0  0  0  0  0  0  0  0
   -1.4307   -1.5847    0.0000 Si  0  0  0  0  0  0  0  0  0  0  0  0
    1.6012    2.4244    0.0000 C   0  0  0  0  0  0  0  0  0  0  0  0
    2.1299    2.0994    0.0000 C   0  0  0  0  0  0  0  0  0  0  0  0
    0.7190    1.9639    0.0000 O   0  0  0  0  0  0  0  0  0  0  0  0
   -1.8971   -0.8802    0.0000 O   0  0  0  0  0  0  0  0  0  0  0  0
   -1.6012   -2.4244    0.0000 C   0  0  0  0  0  0  0  0  0  0  0  0
   -2.1299   -2.0994    0.0000 C   0  0  0  0  0  0  0  0  0  0  0  0
   -0.1089    2.1322    0.0000 Si  0  0  0  0  0  0  0  0  0  0  0  0
   -2.1322   -0.1089    0.0000 Si  0  0  0  0  0  0  0  0  0  0  0  0
   -0.5821    2.8466    0.0000 C   0  0  0  0  0  0  0  0  0  0  0  0
    0.0216    2.9906    0.0000 C   0  0  0  0  0  0  0  0  0  0  0  0
   -0.8802    1.8971    0.0000 O   0  0  0  0  0  0  0  0  0  0  0  0
   -1.9639    0.7190    0.0000 O   0  0  0  0  0  0  0  0  0  0  0  0
   -2.8466   -0.5821    0.0000 C   0  0  0  0  0  0  0  0  0  0  0  0
   -2.9906    0.0216    0.0000 C   0  0  0  0  0  0  0  0  0  0  0  0
   -1.5847    1.4307    0.0000 Si  0  0  0  0  0  0  0  0  0  0  0  0
   -2.4244    1.6012    0.0000 C   0  0  0  0  0  0  0  0  0  0  0  0
   -2.0994    2.1299    0.0000 C   0  0  0  0  0  0  0  0  0  0  0  0
  1  2  1  0  0  0  0 
  2  3  1  0  0  0  0 
  2  4  1  0  0  0  0 
  2  5  1  0  0  0  0 
  4  6  1  0  0  0  0 
  7  5  1  0  0  0  0 
  6  8  1  0  0  0  0 
  6  9  1  0  0  0  0 
  6 10  1  0  0  0  0 
 11  7  1  0  0  0  0 
  7 12  1  0  0  0  0 
  7 13  1  0  0  0  0 
 10 14  1  0  0  0  0 
 15 11  1  0  0  0  0 
 14 16  1  0  0  0  0 
 14 17  1  0  0  0  0 
 14 18  1  0  0  0  0 
 19 15  1  0  0  0  0 
 15 20  1  0  0  0  0 
 15 21  1  0  0  0  0 
 18 22  1  0  0  0  0 
 23 19  1  0  0  0  0 
 22 24  1  0  0  0  0 
 22 25  1  0  0  0  0 
 22 26  1  0  0  0  0 
 27 23  1  0  0  0  0 
 23 28  1  0  0  0  0 
 23 29  1  0  0  0  0 
 26 30  1  0  0  0  0 
 30 27  1  0  0  0  0 
 30 31  1  0  0  0  0 
 30 32  1  0  0  0  0 
M  END
> <Name>
HEXADECAMETHYLCYCLOOCTASILOXANE

> <Source>
Smiles

> <Tox>
-2.539

> <CAS>
556-68-3

$$$$

  CDK

 33 32  0  0  0  0  0  0  0  0999 V2000
    6.0633   14.3187    0.0000 C   0  0  0  0  0  0  0  0  0  0  0  0
    4.9906   15.2049    0.0000 Si  0  0  0  0  0  0  0  0  0  0  0  0
    5.2238   16.5575    0.0000 C   0  0  0  0  0  0  0  0  0  0  0  0
    3.6846   15.6713    0.0000 C   0  0  0  0  0  0  0  0  0  0  0  0
    4.2910   13.9922    0.0000 O   0  0  0  0  0  0  0  0  0  0  0  0
    2.8917   13.9922    0.0000 Si  0  0  0  0  0  0  0  0  0  0  0  0
    2.1921   15.2049    0.0000 C   0  0  0  0  0  0  0  0  0  0  0  0
    3.1249   12.5930    0.0000 C   0  0  0  0  0  0  0  0  0  0  0  0
    1.5858   13.5258    0.0000 O   0  0  0  0  0  0  0  0  0  0  0  0
    1.3059   12.1266    0.0000 Si  0  0  0  0  0  0  0  0  0  0  0  0
    2.3787   11.2404    0.0000 C   0  0  0  0  0  0  0  0  0  0  0  0
    0.0000   12.5930    0.0000 C   0  0  0  0  0  0  0  0  0  0  0  0
    0.6063   10.9139    0.0000 O   0  0  0  0  0  0  0  0  0  0  0  0
    1.3059    9.7013    0.0000 Si  0  0  0  0  0  0  0  0  0  0  0  0
    2.7052    9.7013    0.0000 C   0  0  0  0  0  0  0  0  0  0  0  0
    0.0000    9.2349    0.0000 C   0  0  0  0  0  0  0  0  0  0  0  0
    1.5858    8.3487    0.0000 O   0  0  0  0  0  0  0  0  0  0  0  0
    2.8917    7.8356    0.0000 Si  0  0  0  0  0  0  0  0  0  0  0  0
    3.9645    8.7685    0.0000 C   0  0  0  0  0  0  0  0  0  0  0  0
    2.1921    6.6230    0.0000 C   0  0  0  0  0  0  0  0  0  0  0  0
    4.2910    6.6696    0.0000 O   0  0  0  0  0  0  0  0  0  0  0  0
    3.9645    4.8973    0.0000 Si  0  0  0  0  0  0  0  0  0  0  0  0
    4.1977    3.4981    0.0000 C   0  0  0  0  0  0  0  0  0  0  0  0
    2.6585    5.3637    0.0000 C   0  0  0  0  0  0  0  0  0  0  0  0
    5.3637    4.8973    0.0000 O   0  0  0  0  0  0  0  0  0  0  0  0
    6.0633    3.6846    0.0000 Si  0  0  0  0  0  0  0  0  0  0  0  0
    5.3637    2.4720    0.0000 C   0  0  0  0  0  0  0  0  0  0  0  0
    7.1360    4.5708    0.0000 C   0  0  0  0  0  0  0  0  0  0  0  0
    7.1360    2.7984    0.0000 O   0  0  0  0  0  0  0  0  0  0  0  0
    6.9028    1.3992    0.0000 Si  0  0  0  0  0  0  0  0  0  0  0  0
    5.5969    0.9328    0.0000 C   0  0  0  0  0  0  0  0  0  0  0  0
    7.1360    0.0000    0.0000 C   0  0  0  0  0  0  0  0  0  0  0  0
    8.3021    1.3992    0.0000 C   0  0  0  0  0  0  0  0  0  0  0  0
  1  2  1  0  0  0  0 
  2  3  1  0  0  0  0 
  2  4  1  0  0  0  0 
  2  5  1  0  0  0  0 
  5  6  1  0  0  0  0 
  6  7  1  0  0  0  0 
  6  8  1  0  0  0  0 
  6  9  1  0  0  0  0 
  9 10  1  0  0  0  0 
 10 11  1  0  0  0  0 
 10 12  1  0  0  0  0 
 10 13  1  0  0  0  0 
 13 14  1  0  0  0  0 
 14 15  1  0  0  0  0 
 14 16  1  0  0  0  0 
 14 17  1  0  0  0  0 
 17 18  1  0  0  0  0 
 18 19  1  0  0  0  0 
 18 20  1  0  0  0  0 
 18 21  1  0  0  0  0 
 21 22  1  0  0  0  0 
 22 23  1  0  0  0  0 
 22 24  1  0  0  0  0 
 22 25  1  0  0  0  0 
 25 26  1  0  0  0  0 
 26 27  1  0  0  0  0 
 26 28  1  0  0  0  0 
 26 29  1  0  0  0  0 
 29 30  1  0  0  0  0 
 30 31  1  0  0  0  0 
 30 32  1  0  0  0  0 
 30 33  1  0  0  0  0 
M  END
> <Name>
OCTADECAMETHYLOCTASILOXANE

> <Source>
IndexNet2DMolFile

> <Tox>
-2.496

> <CAS>
556-69-4

$$$$

  CDK

 36 36  0  0  0  0  0  0  0  0999 V2000
    2.1804    0.8769    2.3818 Si  0  0  0  0  0  0  0  0  0  0  0  0
    3.6752    0.5262    1.7166 O   0  0  0  0  0  0  0  0  0  0  0  0
    1.0341    0.9704    1.1685 O   0  0  0  0  0  0  0  0  0  0  0  0
    1.7014   -0.4980    3.5791 C   0  0  0  0  0  0  0  0  0  0  0  0
    2.2644    2.4720    3.3744 C   0  0  0  0  0  0  0  0  0  0  0  0
    4.7795    1.0253    0.5631 Si  0  0  0  0  0  0  0  0  0  0  0  0
    0.1124    2.0405    0.2729 Si  0  0  0  0  0  0  0  0  0  0  0  0
    4.1659    0.7208   -0.9680 O   0  0  0  0  0  0  0  0  0  0  0  0
    5.1568    2.8583    0.7478 C   0  0  0  0  0  0  0  0  0  0  0  0
    6.4004    0.0959    0.8046 C   0  0  0  0  0  0  0  0  0  0  0  0
   -0.7344    1.1627   -0.8753 O   0  0  0  0  0  0  0  0  0  0  0  0
    1.2113    3.3182   -0.5637 C   0  0  0  0  0  0  0  0  0  0  0  0
   -1.0784    2.9717    1.3939 C   0  0  0  0  0  0  0  0  0  0  0  0
    3.5108   -0.5255   -1.8806 Si  0  0  0  0  0  0  0  0  0  0  0  0
   -1.8492    1.3378   -2.1118 Si  0  0  0  0  0  0  0  0  0  0  0  0
    2.2606   -1.2005   -1.0099 O   0  0  0  0  0  0  0  0  0  0  0  0
    2.8610    0.1560   -3.5081 C   0  0  0  0  0  0  0  0  0  0  0  0
    4.8279   -1.8058   -2.2759 C   0  0  0  0  0  0  0  0  0  0  0  0
   -3.2985    1.8800   -1.4792 O   0  0  0  0  0  0  0  0  0  0  0  0
   -2.0751   -0.2994   -3.0097 C   0  0  0  0  0  0  0  0  0  0  0  0
   -1.2211    2.5743   -3.3884 C   0  0  0  0  0  0  0  0  0  0  0  0
    1.3279   -2.5661   -0.7987 Si  0  0  0  0  0  0  0  0  0  0  0  0
   -4.6805    1.3989   -0.6703 Si  0  0  0  0  0  0  0  0  0  0  0  0
   -0.0718   -2.0843   -0.0343 O   0  0  0  0  0  0  0  0  0  0  0  0
    2.2562   -3.8209    0.2474 C   0  0  0  0  0  0  0  0  0  0  0  0
    0.9314   -3.3688   -2.4497 C   0  0  0  0  0  0  0  0  0  0  0  0
   -4.2813    0.7588    0.8245 O   0  0  0  0  0  0  0  0  0  0  0  0
   -5.7981    2.8981   -0.4183 C   0  0  0  0  0  0  0  0  0  0  0  0
   -5.6495    0.1576   -1.7009 C   0  0  0  0  0  0  0  0  0  0  0  0
   -1.4772   -2.5986    0.6971 Si  0  0  0  0  0  0  0  0  0  0  0  0
   -3.8350   -0.6671    1.5812 Si  0  0  0  0  0  0  0  0  0  0  0  0
   -2.4744   -1.2658    0.8258 O   0  0  0  0  0  0  0  0  0  0  0  0
   -1.1091   -3.3244    2.3896 C   0  0  0  0  0  0  0  0  0  0  0  0
   -2.3140   -3.9320   -0.3302 C   0  0  0  0  0  0  0  0  0  0  0  0
   -3.4693   -0.3292    3.3961 C   0  0  0  0  0  0  0  0  0  0  0  0
   -5.2409   -1.9139    1.5086 C   0  0  0  0  0  0  0  0  0  0  0  0
  1  2  1  0  0  0  0 
  1  3  1  0  0  0  0 
  1  4  1  0  0  0  0 
  1  5  1  0  0  0  0 
  6  2  1  0  0  0  0 
  7  3  1  0  0  0  0 
  6  8  1  0  0  0  0 
  6  9  1  0  0  0  0 
  6 10  1  0  0  0  0 
  7 11  1  0  0  0  0 
  7 12  1  0  0  0  0 
  7 13  1  0  0  0  0 
 14  8  1  0  0  0  0 
 15 11  1  0  0  0  0 
 14 16  1  0  0  0  0 
 14 17  1  0  0  0  0 
 14 18  1  0  0  0  0 
 15 19  1  0  0  0  0 
 15 20  1  0  0  0  0 
 15 21  1  0  0  0  0 
 22 16  1  0  0  0  0 
 23 19  1  0  0  0  0 
 22 24  1  0  0  0  0 
 22 25  1  0  0  0  0 
 22 26  1  0  0  0  0 
 23 27  1  0  0  0  0 
 23 28  1  0  0  0  0 
 23 29  1  0  0  0  0 
 30 24  1  0  0  0  0 
 31 27  1  0  0  0  0 
 30 32  1  0  0  0  0 
 30 33  1  0  0  0  0 
 30 34  1  0  0  0  0 
 31 32  1  0  0  0  0 
 31 35  1  0  0  0  0 
 31 36  1  0  0  0  0 
M  END
> <Name>
OCTADECAMETHYLCYCLONONASILOXANE

> <Source>
Chemidplus3DMolFile

> <Tox>
-4.752

> <CAS>
556-71-8

$$$$

  CDK

 10  9  0  0  0  0  0  0  0  0999 V2000
    4.3340    1.4945    0.0000 C   0  0  0  0  0  0  0  0  0  0  0  0
    3.4871    0.9963    0.0000 C   0  0  0  0  0  0  0  0  0  0  0  0
    5.1808    0.9963    0.0000 C   0  0  0  0  0  0  0  0  0  0  0  0
    2.5904    1.4945    0.0000 O   0  0  0  0  0  0  0  0  0  0  0  0
    3.4871    0.0000    0.0000 O   0  0  0  0  0  0  0  0  0  0  0  0
    5.1808    0.0000    0.0000 C   0  0  0  0  0  0  0  0  0  0  0  0
    6.0775    1.4945    0.0000 C   0  0  0  0  0  0  0  0  0  0  0  0
    1.7435    0.9963    0.0000 C   0  0  0  0  0  0  0  0  0  0  0  0
    0.8967    1.4945    0.0000 C   0  0  0  0  0  0  0  0  0  0  0  0
    0.0000    0.9963    0.0000 C   0  0  0  0  0  0  0  0  0  0  0  0
  1  2  1  0  0  0  0 
  1  3  1  0  0  0  0 
  2  4  1  0  0  0  0 
  2  5  2  0  0  0  0 
  3  6  1  0  0  0  0 
  3  7  1  0  0  0  0 
  4  8  1  0  0  0  0 
  8  9  1  0  0  0  0 
  9 10  1  0  0  0  0 
M  END
> <Name>
PROPYL ISOVALERATE

> <Source>
NIST2DMolFile

> <Tox>
0.413

> <CAS>
557-00-6

$$$$

  CDK

  5  4  0  0  0  0  0  0  0  0999 V2000
    1.2351    2.1345    2.1185 C   0  0  0  0  0  0  0  0  0  0  0  0
    0.6324    2.8181    3.3238 C   0  0  0  0  0  0  0  0  0  0  0  0
    2.1084    0.9564    2.5483 C   0  0  0  0  0  0  0  0  0  0  0  0
    2.5867    0.1869    1.4623 O   0  0  0  0  0  0  0  0  0  0  0  0
    3.6488    0.7624    0.7448 C   0  0  0  0  0  0  0  0  0  0  0  0
  1  2  1  0  0  0  0 
  1  3  1  0  0  0  0 
  3  4  1  0  0  0  0 
  4  5  1  0  0  0  0 
M  END
> <Name>
METHYL PROPYL ETHER

> <Source>
NIST3DMolFile

> <Tox>
2.667

> <CAS>
557-17-5

$$$$

  CDK

  9  8  0  0  0  0  0  0  0  0999 V2000
    2.0185    2.2655   -0.0136 C   0  0  0  0  0  0  0  0  0  0  0  0
    1.0175    1.2343   -0.4434 C   0  0  0  0  0  0  0  0  0  0  0  0
   -0.2942    1.3188    0.2954 C   0  0  0  0  0  0  0  0  0  0  0  0
    1.8737   -0.5634    0.0317 I   0  0  0  0  0  0  0  0  0  0  0  0
   -1.4096    0.5586   -0.4073 C   0  0  0  0  0  0  0  0  0  0  0  0
   -2.7064    0.6284    0.3824 C   0  0  0  0  0  0  0  0  0  0  0  0
   -3.8220   -0.1238   -0.3250 C   0  0  0  0  0  0  0  0  0  0  0  0
   -5.1206   -0.0590    0.4630 C   0  0  0  0  0  0  0  0  0  0  0  0
   -6.2319   -0.8054   -0.2399 C   0  0  0  0  0  0  0  0  0  0  0  0
  1  2  1  0  0  0  0 
  2  3  1  0  0  0  0 
  2  4  1  0  0  0  0 
  3  5  1  0  0  0  0 
  5  6  1  0  0  0  0 
  6  7  1  0  0  0  0 
  7  8  1  0  0  0  0 
  8  9  1  0  0  0  0 
M  END
> <Name>
2-IODOOCTANE

> <Source>
DougDB3DMolFile

> <Tox>
0.137

> <CAS>
557-36-8

$$$$

  CDK

  4  3  0  0  0  0  0  0  0  0999 V2000
    0.0000    0.0000    0.0000 C   0  0  0  0  0  0  0  0  0  0  0  0
    0.8704    0.5120    0.0000 C   0  0  0  0  0  0  0  0  0  0  0  0
    1.6897    0.0000    0.0000 Br  0  0  0  0  0  0  0  0  0  0  0  0
    0.8704    1.5361    0.0000 Br  0  0  0  0  0  0  0  0  0  0  0  0
  1  2  1  0  0  0  0 
  2  3  1  0  0  0  0 
  2  4  1  0  0  0  0 
M  END
> <Name>
1,1-DIBROMOETHANE

> <Source>
NIST2DMolFile

> <Tox>
1.408

> <CAS>
557-91-5

$$$$

  CDK

  4  3  0  0  0  0  0  0  0  0999 V2000
    0.0000    0.4569    0.0000 C   0  0  0  0  0  0  0  0  0  0  0  0
    1.0153    0.7107    0.0000 C   0  0  0  0  0  0  0  0  0  0  0  0
    1.2691    1.6245    0.0000 Cl  0  0  0  0  0  0  0  0  0  0  0  0
    1.7260    0.0000    0.0000 C   0  0  0  0  0  0  0  0  0  0  0  0
  1  2  1  0  0  0  0 
  2  3  1  0  0  0  0 
  2  4  2  0  0  0  0 
M  END
> <Name>
2-CHLOROPROPENE

> <Source>
NIST2DMolFile

> <Tox>
2.913

> <CAS>
557-98-2

$$$$

  CDK

  5  4  0  0  0  0  0  0  0  0999 V2000
    0.0838   -1.9699    0.0805 Br  0  0  0  0  0  0  0  0  0  0  0  0
    0.0003   -0.0002    0.0004 C   0  0  0  0  0  0  0  0  0  0  0  0
   -1.3743    0.6519    1.2569 Br  0  0  0  0  0  0  0  0  0  0  0  0
   -0.4650    0.5642   -1.8326 Br  0  0  0  0  0  0  0  0  0  0  0  0
    1.7552    0.7540    0.4948 Br  0  0  0  0  0  0  0  0  0  0  0  0
  1  2  1  0  0  0  0 
  3  2  1  0  0  0  0 
  4  2  1  0  0  0  0 
  5  2  1  0  0  0  0 
M  END
> <Name>
CARBON TETRABROMIDE

> <Source>
Chemidplus3DMolFile

> <Tox>
-0.569

> <CAS>
558-13-4

$$$$

  CDK

  6  5  0  0  0  0  0  0  0  0999 V2000
    0.0000   -2.4700    0.0000 C   0  0  0  0  0  0  0  0  0  0  0  0
    0.6742   -1.3318    0.0000 C   0  0  0  0  0  0  0  0  0  0  0  0
    2.0060   -1.3318    0.0000 C   0  0  0  0  0  0  0  0  0  0  0  0
    3.3378   -1.3318    0.0000 C   0  0  0  0  0  0  0  0  0  0  0  0
    2.0060   -0.0000    0.0000 C   0  0  0  0  0  0  0  0  0  0  0  0
    2.0060   -2.6636    0.0000 C   0  0  0  0  0  0  0  0  0  0  0  0
  1  2  2  0  0  0  0 
  2  3  1  0  0  0  0 
  3  4  1  0  0  0  0 
  3  5  1  0  0  0  0 
  3  6  1  0  0  0  0 
M  END
> <Name>
3,3-DIMETHYL-1-BUTENE

> <Source>
DSSTox2DMolFile

> <Tox>
2.634

> <CAS>
558-37-2

$$$$

  CDK

  8  7  0  0  0  0  0  0  0  0999 V2000
    4.2757    1.8777    2.8297 C   0  0  0  0  0  0  0  0  0  0  0  0
    2.9166    2.0441    2.0906 C   0  0  0  0  0  0  0  0  0  0  0  0
    4.9027    3.2286    3.1438 C   0  0  0  0  0  0  0  0  0  0  0  0
    5.2646    1.0323    2.0406 C   0  0  0  0  0  0  0  0  0  0  0  0
    1.9657    2.8465    3.0036 C   0  0  0  0  0  0  0  0  0  0  0  0
    2.3130    0.6655    1.8213 C   0  0  0  0  0  0  0  0  0  0  0  0
    3.1246    2.7788    0.7667 C   0  0  0  0  0  0  0  0  0  0  0  0
    0.6201    3.1480    2.3832 C   0  0  0  0  0  0  0  0  0  0  0  0
  1  2  1  0  0  0  0 
  1  3  1  0  0  0  0 
  1  4  1  0  0  0  0 
  2  5  1  0  0  0  0 
  2  6  1  0  0  0  0 
  2  7  1  0  0  0  0 
  5  8  1  0  0  0  0 
M  END
> <Name>
2,3,3-TRIMETHYLPENTANE

> <Source>
NIST3DMolFile

> <Tox>
1.431

> <CAS>
560-21-4

$$$$

  CDK

  8  7  0  0  0  0  0  0  0  0999 V2000
    0.0000    0.1550    0.0000 C   0  0  0  0  0  0  0  0  0  0  0  0
    0.5168    0.9818    0.0000 C   0  0  0  0  0  0  0  0  0  0  0  0
    1.5503    0.9818    0.0000 C   0  0  0  0  0  0  0  0  0  0  0  0
    1.5503    0.0000    0.0000 C   0  0  0  0  0  0  0  0  0  0  0  0
    1.5503    2.0154    0.0000 C   0  0  0  0  0  0  0  0  0  0  0  0
    2.5321    0.9818    0.0000 C   0  0  0  0  0  0  0  0  0  0  0  0
    3.0489    0.1550    0.0000 C   0  0  0  0  0  0  0  0  0  0  0  0
    3.0489    1.8603    0.0000 C   0  0  0  0  0  0  0  0  0  0  0  0
  1  2  1  0  0  0  0 
  2  3  1  0  0  0  0 
  3  4  1  0  0  0  0 
  3  5  1  0  0  0  0 
  3  6  1  0  0  0  0 
  6  7  2  0  0  0  0 
  6  8  1  0  0  0  0 
M  END
> <Name>
2,3,3-TRIMETHYL-1-PENTENE

> <Source>
NIST2DMolFile

> <Tox>
1.480

> <CAS>
560-23-6

$$$$

  CDK

 27 31  0  0  0  0  0  0  0  0999 V2000
    4.6560   -2.2040    0.7422 O   0  0  0  0  0  0  0  0  0  0  0  0
    5.3935   -0.9846    1.1049 C   0  0  0  0  0  0  0  0  0  0  0  0
    3.3612   -1.7901    0.5823 C   0  0  0  0  0  0  0  0  0  0  0  0
    4.3829    0.0056    1.7295 C   0  0  0  0  0  0  0  0  0  0  0  0
    6.1719   -0.4236   -0.1138 C   0  0  0  0  0  0  0  0  0  0  0  0
    3.1534   -0.5167    1.0626 C   0  0  0  0  0  0  0  0  0  0  0  0
    2.3488   -2.4876   -0.0391 C   0  0  0  0  0  0  0  0  0  0  0  0
    4.5299    1.4938    1.3774 C   0  0  0  0  0  0  0  0  0  0  0  0
    4.2634   -0.1482    3.2586 C   0  0  0  0  0  0  0  0  0  0  0  0
    6.3690   -1.4528   -1.0801 O   0  0  0  0  0  0  0  0  0  0  0  0
    5.5791    0.7982   -0.7639 C   0  0  0  0  0  0  0  0  0  0  0  0
    1.9821    0.1838    0.8374 C   0  0  0  0  0  0  0  0  0  0  0  0
    2.5344   -3.7489   -0.5000 O   0  0  0  0  0  0  0  0  0  0  0  0
    1.1221   -1.8342   -0.2135 C   0  0  0  0  0  0  0  0  0  0  0  0
    3.2261    2.2047    1.8659 C   0  0  0  0  0  0  0  0  0  0  0  0
    4.8434    1.6901   -0.0839 C   0  0  0  0  0  0  0  0  0  0  0  0
    3.1672    0.7457    3.8616 C   0  0  0  0  0  0  0  0  0  0  0  0
    7.2038   -1.1406   -2.1151 C   0  0  0  0  0  0  0  0  0  0  0  0
    1.9365    1.6516    1.1672 C   0  0  0  0  0  0  0  0  0  0  0  0
    0.9435   -0.4996    0.2028 C   0  0  0  0  0  0  0  0  0  0  0  0
    3.0231   -3.8183   -1.8173 C   0  0  0  0  0  0  0  0  0  0  0  0
    3.2200    2.1175    3.3463 N   0  0  0  0  0  0  0  0  0  0  0  0
    7.7841   -0.0760   -2.2794 O   0  0  0  0  0  0  0  0  0  0  0  0
    7.3159   -2.3099   -3.0458 C   0  0  0  0  0  0  0  0  0  0  0  0
    3.2752   -2.8590   -2.5343 O   0  0  0  0  0  0  0  0  0  0  0  0
    3.1938   -5.2495   -2.2325 C   0  0  0  0  0  0  0  0  0  0  0  0
    2.2084    2.9616    3.9736 C   0  0  0  0  0  0  0  0  0  0  0  0
  1  2  1  0  0  0  0 
  1  3  1  0  0  0  0 
  4  2  1  0  0  0  0 
  2  5  1  0  0  0  0 
  6  3  1  0  0  0  0 
  3  7  2  0  0  0  0 
  4  8  1  0  0  0  0 
  4  9  1  0  0  0  0 
  4  6  1  0  0  0  0 
 10  5  1  0  0  0  0 
  5 11  1  0  0  0  0 
  6 12  2  0  0  0  0 
 13  7  1  0  0  0  0 
  7 14  1  0  0  0  0 
  8 15  1  0  0  0  0 
  8 16  1  0  0  0  0 
  9 17  1  0  0  0  0 
 10 18  1  0  0  0  0 
 16 11  2  0  0  0  0 
 19 12  1  0  0  0  0 
 12 20  1  0  0  0  0 
 13 21  1  0  0  0  0 
 20 14  2  0  0  0  0 
 22 15  1  0  0  0  0 
 15 19  1  0  0  0  0 
 22 17  1  0  0  0  0 
 23 18  2  0  0  0  0 
 18 24  1  0  0  0  0 
 25 21  2  0  0  0  0 
 21 26  1  0  0  0  0 
 22 27  1  0  0  0  0 
M  END
> <Name>
HEROIN

> <Source>
Chemidplus3DMolFile

> <Tox>
-9.120

> <CAS>
561-27-3

$$$$

  CDK

  7  6  0  0  0  0  0  0  0  0999 V2000
    3.2888    2.6341    2.5409 C   0  0  0  0  0  0  0  0  0  0  0  0
    2.4528    1.6708    1.6791 C   0  0  0  0  0  0  0  0  0  0  0  0
    4.2880    1.9337    3.4358 C   0  0  0  0  0  0  0  0  0  0  0  0
    1.6620    0.6671    2.5379 C   0  0  0  0  0  0  0  0  0  0  0  0
    1.4712    2.4871    0.8369 C   0  0  0  0  0  0  0  0  0  0  0  0
    3.3873    0.8963    0.7487 C   0  0  0  0  0  0  0  0  0  0  0  0
    0.7147    1.3239    3.5183 C   0  0  0  0  0  0  0  0  0  0  0  0
  1  2  1  0  0  0  0 
  1  3  1  0  0  0  0 
  2  4  1  0  0  0  0 
  2  5  1  0  0  0  0 
  2  6  1  0  0  0  0 
  4  7  1  0  0  0  0 
M  END
> <Name>
3,3-DIMETHYLPENTANE

> <Source>
NIST3DMolFile

> <Tox>
1.918

> <CAS>
562-49-2

$$$$

  CDK

 19 18  0  0  0  0  0  0  0  0999 V2000
    7.2276   -2.3060    0.0000 P   0  0  0  0  0  0  0  0  0  0  0  0
    6.0852   -1.6761    0.0000 S   0  0  0  0  0  0  0  0  0  0  0  0
    7.9001   -1.1743    0.0000 S   0  0  0  0  0  0  0  0  0  0  0  0
    6.5443   -3.4910    0.0000 O   0  0  0  0  0  0  0  0  0  0  0  0
    8.3592   -2.9892    0.0000 O   0  0  0  0  0  0  0  0  0  0  0  0
    4.9429   -2.3060    0.0000 C   0  0  0  0  0  0  0  0  0  0  0  0
    7.2276   -4.5799    0.0000 C   0  0  0  0  0  0  0  0  0  0  0  0
    9.5229   -2.3060    0.0000 C   0  0  0  0  0  0  0  0  0  0  0  0
    3.7793   -1.6761    0.0000 S   0  0  0  0  0  0  0  0  0  0  0  0
    6.5443   -5.7650    0.0000 C   0  0  0  0  0  0  0  0  0  0  0  0
   10.6759   -2.9892    0.0000 C   0  0  0  0  0  0  0  0  0  0  0  0
    2.6263   -2.3060    0.0000 P   0  0  0  0  0  0  0  0  0  0  0  0
    3.3095   -3.4910    0.0000 S   0  0  0  0  0  0  0  0  0  0  0  0
    1.4733   -2.9892    0.0000 O   0  0  0  0  0  0  0  0  0  0  0  0
    1.9964   -1.1530    0.0000 O   0  0  0  0  0  0  0  0  0  0  0  0
    1.4733   -4.3024    0.0000 C   0  0  0  0  0  0  0  0  0  0  0  0
    0.6406   -1.1530    0.0000 C   0  0  0  0  0  0  0  0  0  0  0  0
    0.3203   -4.9750    0.0000 C   0  0  0  0  0  0  0  0  0  0  0  0
    0.0000   -0.0000    0.0000 C   0  0  0  0  0  0  0  0  0  0  0  0
  1  2  1  0  0  0  0 
  1  3  2  0  0  0  0 
  1  4  1  0  0  0  0 
  1  5  1  0  0  0  0 
  2  6  1  0  0  0  0 
  4  7  1  0  0  0  0 
  5  8  1  0  0  0  0 
  9  6  1  0  0  0  0 
  7 10  1  0  0  0  0 
  8 11  1  0  0  0  0 
 12  9  1  0  0  0  0 
 12 13  2  0  0  0  0 
 12 14  1  0  0  0  0 
 12 15  1  0  0  0  0 
 14 16  1  0  0  0  0 
 15 17  1  0  0  0  0 
 16 18  1  0  0  0  0 
 17 19  1  0  0  0  0 
M  END
> <Name>
ETHION

> <Source>
DSSTox2DMolFile

> <Tox>
-5.824

> <CAS>
563-12-2

$$$$

  CDK

  8  7  0  0  0  0  0  0  0  0999 V2000
    3.7935    2.7640    2.8049 C   0  0  0  0  0  0  0  0  0  0  0  0
    2.7853    1.9737    1.9505 C   0  0  0  0  0  0  0  0  0  0  0  0
    5.0066    3.2170    2.0086 C   0  0  0  0  0  0  0  0  0  0  0  0
    1.5674    1.6061    2.8191 C   0  0  0  0  0  0  0  0  0  0  0  0
    2.3225    2.8094    0.7569 C   0  0  0  0  0  0  0  0  0  0  0  0
    3.4508    0.6905    1.4543 C   0  0  0  0  0  0  0  0  0  0  0  0
    5.9958    3.9665    2.8678 C   0  0  0  0  0  0  0  0  0  0  0  0
    0.8529    2.8272    3.3565 C   0  0  0  0  0  0  0  0  0  0  0  0
  1  2  1  0  0  0  0 
  1  3  1  0  0  0  0 
  2  4  1  0  0  0  0 
  2  5  1  0  0  0  0 
  2  6  1  0  0  0  0 
  3  7  1  0  0  0  0 
  4  8  1  0  0  0  0 
M  END
> <Name>
3,3-DIMETHYL HEXANE

> <Source>
NIST3DMolFile

> <Tox>
1.456

> <CAS>
563-16-6

$$$$

  CDK

  5  4  0  0  0  0  0  0  0  0999 V2000
    2.0100    2.5577    1.6595 C   0  0  0  0  0  0  0  0  0  0  0  0
    0.8532    2.0816    2.5131 C   0  0  0  0  0  0  0  0  0  0  0  0
    3.1829    1.6335    1.7639 C   0  0  0  0  0  0  0  0  0  0  0  0
    4.0821    1.8396    2.9294 C   0  0  0  0  0  0  0  0  0  0  0  0
    3.4055    0.6818    0.8577 C   0  0  0  0  0  0  0  0  0  0  0  0
  1  2  1  0  0  0  0 
  1  3  1  0  0  0  0 
  3  4  1  0  0  0  0 
  3  5  2  0  0  0  0 
M  END
> <Name>
2-METHYL-1-BUTENE

> <Source>
NIST3DMolFile

> <Tox>
2.785

> <CAS>
563-46-2

$$$$

  CDK

  5  4  0  0  0  0  0  0  0  0999 V2000
   -1.2593   -0.8750    0.0000 C   0  0  0  0  0  0  0  0  0  0  0  0
   -0.0469   -0.1750    0.0000 N   0  0  0  0  0  0  0  0  0  0  0  0
   -2.4718   -0.1750    0.0000 Br  0  0  0  0  0  0  0  0  0  0  0  0
   -0.0469    1.2250    0.0000 O   0  0  0  0  0  0  0  0  0  0  0  0
    1.1655   -0.8750    0.0000 O   0  0  0  0  0  0  0  0  0  0  0  0
  1  2  1  0  0  0  0 
  1  3  1  0  0  0  0 
  4  2  2  0  0  0  0 
  5  2  1  0  0  0  0 
M  CHG  1   2   1
M  CHG  1   5  -1
M  END
> <Name>
BROMONITROMETHANE

> <Source>
IndexNet2DMolFile

> <Tox>
0.491

> <CAS>
563-70-2

$$$$

  CDK

  6  5  0  0  0  0  0  0  0  0999 V2000
    2.8620    2.1180    2.5980 C   0  0  0  0  0  0  0  0  0  0  0  0
    1.5288    2.4408    1.9753 C   0  0  0  0  0  0  0  0  0  0  0  0
    2.9106    0.8763    3.4147 C   0  0  0  0  0  0  0  0  0  0  0  0
    3.9369    2.8894    2.4350 C   0  0  0  0  0  0  0  0  0  0  0  0
    0.9894    3.7596    2.5076 C   0  0  0  0  0  0  0  0  0  0  0  0
    1.6309    2.4707    0.4581 C   0  0  0  0  0  0  0  0  0  0  0  0
  1  2  1  0  0  0  0 
  1  3  1  0  0  0  0 
  1  4  2  0  0  0  0 
  2  5  1  0  0  0  0 
  2  6  1  0  0  0  0 
M  END
> <Name>
2,3-DIMETHYL-1-BUTENE

> <Source>
NIST3DMolFile

> <Tox>
2.401

> <CAS>
563-78-0

$$$$

  CDK

  6  5  0  0  0  0  0  0  0  0999 V2000
    1.9499    2.2035    2.0111 C   0  0  0  0  0  0  0  0  0  0  0  0
    3.2063    2.1191    1.5275 C   0  0  0  0  0  0  0  0  0  0  0  0
    1.0313    1.0347    2.0094 C   0  0  0  0  0  0  0  0  0  0  0  0
    1.4110    3.4703    2.5719 C   0  0  0  0  0  0  0  0  0  0  0  0
    4.1223    3.2900    1.5211 C   0  0  0  0  0  0  0  0  0  0  0  0
    3.7471    0.8507    0.9720 C   0  0  0  0  0  0  0  0  0  0  0  0
  1  2  2  0  0  0  0 
  1  3  1  0  0  0  0 
  1  4  1  0  0  0  0 
  2  5  1  0  0  0  0 
  2  6  1  0  0  0  0 
M  END
> <Name>
2,3-DIMETHYL-2-BUTENE

> <Source>
NIST3DMolFile

> <Tox>
2.100

> <CAS>
563-79-1

$$$$

  CDK

  6  5  0  0  0  0  0  0  0  0999 V2000
    3.3250   -1.1509    0.0000 C   0  0  0  0  0  0  0  0  0  0  0  0
    1.9943   -1.1509    0.0000 C   0  0  0  0  0  0  0  0  0  0  0  0
    1.3307   -0.0000    0.0000 O   0  0  0  0  0  0  0  0  0  0  0  0
    1.3307   -2.3053    0.0000 C   0  0  0  0  0  0  0  0  0  0  0  0
    1.9943   -3.4563    0.0000 C   0  0  0  0  0  0  0  0  0  0  0  0
    0.0000   -2.3053    0.0000 C   0  0  0  0  0  0  0  0  0  0  0  0
  1  2  1  0  0  0  0 
  2  3  2  0  0  0  0 
  2  4  1  0  0  0  0 
  4  5  1  0  0  0  0 
  4  6  1  0  0  0  0 
M  END
> <Name>
3-METHYL-2-BUTANONE

> <Source>
DSSTox2DMolFile

> <Tox>
1.718

> <CAS>
563-80-4

$$$$

  CDK

  8  7  0  0  0  0  0  0  0  0999 V2000
    3.2029    2.0424    2.6807 C   0  0  0  0  0  0  0  0  0  0  0  0
    1.8382    1.8218    1.9691 C   0  0  0  0  0  0  0  0  0  0  0  0
    4.1134    2.9416    1.8379 C   0  0  0  0  0  0  0  0  0  0  0  0
    3.8941    0.7230    2.9961 C   0  0  0  0  0  0  0  0  0  0  0  0
    2.0459    1.1381    0.6182 C   0  0  0  0  0  0  0  0  0  0  0  0
    1.1480    3.1709    1.7556 C   0  0  0  0  0  0  0  0  0  0  0  0
    0.9284    0.9562    2.8414 C   0  0  0  0  0  0  0  0  0  0  0  0
    5.3840    3.3404    2.5498 C   0  0  0  0  0  0  0  0  0  0  0  0
  1  2  1  0  0  0  0 
  1  3  1  0  0  0  0 
  1  4  1  0  0  0  0 
  2  5  1  0  0  0  0 
  2  6  1  0  0  0  0 
  2  7  1  0  0  0  0 
  3  8  1  0  0  0  0 
M  END
> <Name>
2,2,3-TRIMETHYLPENTANE

> <Source>
NIST3DMolFile

> <Tox>
1.507

> <CAS>
564-02-3

$$$$

  CDK

  7  6  0  0  0  0  0  0  0  0999 V2000
    4.3751    2.6128    2.7529 C   0  0  0  0  0  0  0  0  0  0  0  0
    3.2736    1.9976    1.8651 C   0  0  0  0  0  0  0  0  0  0  0  0
    4.5445    4.1009    2.4849 C   0  0  0  0  0  0  0  0  0  0  0  0
    5.7094    1.9144    2.5314 C   0  0  0  0  0  0  0  0  0  0  0  0
    1.9284    2.6959    2.0896 C   0  0  0  0  0  0  0  0  0  0  0  0
    3.1364    0.5066    2.1417 C   0  0  0  0  0  0  0  0  0  0  0  0
    0.9524    2.4445    0.9624 C   0  0  0  0  0  0  0  0  0  0  0  0
  1  2  1  0  0  0  0 
  1  3  1  0  0  0  0 
  1  4  1  0  0  0  0 
  2  5  1  0  0  0  0 
  2  6  1  0  0  0  0 
  5  7  1  0  0  0  0 
M  END
> <Name>
2,3-DIMETHYLPENTANE

> <Source>
NIST3DMolFile

> <Tox>
1.838

> <CAS>
565-59-3

$$$$

  CDK

  7  6  0  0  0  0  0  0  0  0999 V2000
    0.0000   -2.3052    0.0000 C   0  0  0  0  0  0  0  0  0  0  0  0
    1.3306   -2.3052    0.0000 C   0  0  0  0  0  0  0  0  0  0  0  0
    1.9941   -3.4560    0.0000 C   0  0  0  0  0  0  0  0  0  0  0  0
    1.9941   -1.1508    0.0000 C   0  0  0  0  0  0  0  0  0  0  0  0
    3.3247   -3.4560    0.0000 C   0  0  0  0  0  0  0  0  0  0  0  0
    1.3306   -0.0000    0.0000 C   0  0  0  0  0  0  0  0  0  0  0  0
    3.3247   -1.1508    0.0000 O   0  0  0  0  0  0  0  0  0  0  0  0
  1  2  1  0  0  0  0 
  2  3  1  0  0  0  0 
  2  4  1  0  0  0  0 
  3  5  1  0  0  0  0 
  4  6  1  0  0  0  0 
  4  7  2  0  0  0  0 
M  END
> <Name>
3-METHYLPENTAN-2-ONE

> <Source>
DSSTox2DMolFile

> <Tox>
1.064

> <CAS>
565-61-7

$$$$

  CDK

  7  6  0  0  0  0  0  0  0  0999 V2000
    2.5864    0.9948    0.0000 C   0  0  0  0  0  0  0  0  0  0  0  0
    1.7409    1.4922    0.0000 C   0  0  0  0  0  0  0  0  0  0  0  0
    2.5864    0.0000    0.0000 C   0  0  0  0  0  0  0  0  0  0  0  0
    3.4818    1.4922    0.0000 C   0  0  0  0  0  0  0  0  0  0  0  0
    0.8953    0.9948    0.0000 C   0  0  0  0  0  0  0  0  0  0  0  0
    1.7409    2.4870    0.0000 O   0  0  0  0  0  0  0  0  0  0  0  0
    0.0000    1.4922    0.0000 C   0  0  0  0  0  0  0  0  0  0  0  0
  1  2  1  0  0  0  0 
  1  3  1  0  0  0  0 
  1  4  1  0  0  0  0 
  2  5  1  0  0  0  0 
  2  6  2  0  0  0  0 
  5  7  1  0  0  0  0 
M  END
> <Name>
2-METHYL-3-PENTANONE

> <Source>
NIST2DMolFile

> <Tox>
1.258

> <CAS>
565-69-5

$$$$

  CDK

  8  7  0  0  0  0  0  0  0  0999 V2000
    3.9928    2.5193    2.3545 C   0  0  0  0  0  0  0  0  0  0  0  0
    3.0903    2.0486    1.1910 C   0  0  0  0  0  0  0  0  0  0  0  0
    4.4944    3.9383    2.1172 C   0  0  0  0  0  0  0  0  0  0  0  0
    5.1986    1.6224    2.5927 C   0  0  0  0  0  0  0  0  0  0  0  0
    1.6145    2.4976    1.3297 C   0  0  0  0  0  0  0  0  0  0  0  0
    3.1138    0.5371    0.9982 C   0  0  0  0  0  0  0  0  0  0  0  0
    1.4262    3.9700    1.0028 C   0  0  0  0  0  0  0  0  0  0  0  0
    1.0232    2.1796    2.6933 C   0  0  0  0  0  0  0  0  0  0  0  0
  1  2  1  0  0  0  0 
  1  3  1  0  0  0  0 
  1  4  1  0  0  0  0 
  2  5  1  0  0  0  0 
  2  6  1  0  0  0  0 
  5  7  1  0  0  0  0 
  5  8  1  0  0  0  0 
M  END
> <Name>
2,3,4-TRIMETHYLPENTANE

> <Source>
NIST3DMolFile

> <Tox>
1.433

> <CAS>
565-75-3

$$$$

  CDK

  8  7  0  0  0  0  0  0  0  0999 V2000
    4.4659    2.8496    1.9643 C   0  0  0  0  0  0  0  0  0  0  0  0
    3.2111    2.0948    1.6052 C   0  0  0  0  0  0  0  0  0  0  0  0
    5.3391    3.0451    0.7333 C   0  0  0  0  0  0  0  0  0  0  0  0
    5.2301    2.1226    3.0612 C   0  0  0  0  0  0  0  0  0  0  0  0
    1.9754    2.5946    1.8000 C   0  0  0  0  0  0  0  0  0  0  0  0
    3.4307    0.7427    1.0192 C   0  0  0  0  0  0  0  0  0  0  0  0
    1.7003    3.9330    2.3891 C   0  0  0  0  0  0  0  0  0  0  0  0
    0.7429    1.8369    1.4452 C   0  0  0  0  0  0  0  0  0  0  0  0
  1  2  1  0  0  0  0 
  1  3  1  0  0  0  0 
  1  4  1  0  0  0  0 
  2  5  2  0  0  0  0 
  2  6  1  0  0  0  0 
  5  7  1  0  0  0  0 
  5  8  1  0  0  0  0 
M  END
> <Name>
2,3,4-TRIMETHYL-2-PENTENE

> <Source>
NIST3DMolFile

> <Tox>
1.352

> <CAS>
565-77-5

$$$$

  CDK

  8  7  0  0  0  0  0  0  0  0999 V2000
   -2.3492    0.9231    0.2643 C   0  0  0  0  0  0  0  0  0  0  0  0
   -1.2844    0.1198   -0.4603 C   0  0  0  0  0  0  0  0  0  0  0  0
    0.0004   -0.0119    0.3572 C   0  0  0  0  0  0  0  0  0  0  0  0
   -1.7982   -1.2690   -0.8039 C   0  0  0  0  0  0  0  0  0  0  0  0
    1.2853   -0.0978   -0.4660 C   0  0  0  0  0  0  0  0  0  0  0  0
   -0.0001   -0.0458    1.5708 O   0  0  0  0  0  0  0  0  0  0  0  0
    1.7899    1.3087   -0.7456 C   0  0  0  0  0  0  0  0  0  0  0  0
    2.3566   -0.9263    0.2194 C   0  0  0  0  0  0  0  0  0  0  0  0
  1  2  1  0  0  0  0 
  2  3  1  0  0  0  0 
  2  4  1  0  0  0  0 
  3  5  1  0  0  0  0 
  3  6  2  0  0  0  0 
  5  7  1  0  0  0  0 
  5  8  1  0  0  0  0 
M  END
> <Name>
2,4-DIMETHYL-3-PENTANONE

> <Source>
DougDB3DMolFile

> <Tox>
1.127

> <CAS>
565-80-0

$$$$

  CDK

 12 13  0  0  0  0  0  0  0  0999 V2000
    0.0000    2.0988    0.0000 C   0  0  0  0  0  0  0  0  0  0  0  0
    0.0000    0.6996    0.0000 C   0  0  0  0  0  0  0  0  0  0  0  0
    1.2127    2.7984    0.0000 C   0  0  0  0  0  0  0  0  0  0  0  0
    1.2127    0.0000    0.0000 C   0  0  0  0  0  0  0  0  0  0  0  0
    2.4253    2.0988    0.0000 C   0  0  0  0  0  0  0  0  0  0  0  0
    1.2127    4.1977    0.0000 C   0  0  0  0  0  0  0  0  0  0  0  0
    2.4253    0.6996    0.0000 C   0  0  0  0  0  0  0  0  0  0  0  0
    3.6380    2.7984    0.0000 C   0  0  0  0  0  0  0  0  0  0  0  0
    3.6380    0.0000    0.0000 C   0  0  0  0  0  0  0  0  0  0  0  0
    4.8506    2.0988    0.0000 C   0  0  0  0  0  0  0  0  0  0  0  0
    3.6380    4.1977    0.0000 C   0  0  0  0  0  0  0  0  0  0  0  0
    4.8506    0.6996    0.0000 C   0  0  0  0  0  0  0  0  0  0  0  0
  1  2  2  0  0  0  0 
  1  3  1  0  0  0  0 
  2  4  1  0  0  0  0 
  5  3  2  0  0  0  0 
  3  6  1  0  0  0  0 
  4  7  2  0  0  0  0 
  7  5  1  0  0  0  0 
  5  8  1  0  0  0  0 
  7  9  1  0  0  0  0 
 10  8  2  0  0  0  0 
  8 11  1  0  0  0  0 
  9 12  2  0  0  0  0 
 12 10  1  0  0  0  0 
M  END
> <Name>
1,8-DIMETHYLNAPHTHALENE

> <Source>
IndexNet2DMolFile

> <Tox>
-2.320

> <CAS>
569-41-5

$$$$

  CDK

 12 13  0  0  0  0  0  0  0  0999 V2000
    4.6048    4.9183    0.7944 C   0  0  0  0  0  0  0  0  0  0  0  0
    4.5584    6.4045    0.7489 C   0  0  0  0  0  0  0  0  0  0  0  0
    3.4054    4.1401    0.8080 C   0  0  0  0  0  0  0  0  0  0  0  0
    5.8261    4.2892    0.8360 C   0  0  0  0  0  0  0  0  0  0  0  0
    3.4945    2.7320    0.8803 C   0  0  0  0  0  0  0  0  0  0  0  0
    2.1226    4.7489    0.7462 C   0  0  0  0  0  0  0  0  0  0  0  0
    5.9128    2.8821    0.8951 C   0  0  0  0  0  0  0  0  0  0  0  0
    2.2951    1.9541    0.9070 C   0  0  0  0  0  0  0  0  0  0  0  0
    4.7773    2.1215    0.9193 C   0  0  0  0  0  0  0  0  0  0  0  0
    0.9871    3.9878    0.7638 C   0  0  0  0  0  0  0  0  0  0  0  0
    2.3400    0.4708    1.0102 C   0  0  0  0  0  0  0  0  0  0  0  0
    1.0736    2.5821    0.8473 C   0  0  0  0  0  0  0  0  0  0  0  0
  1  2  1  0  0  0  0 
  3  1  2  0  0  0  0 
  1  4  1  0  0  0  0 
  3  5  1  0  0  0  0 
  6  3  1  0  0  0  0 
  4  7  2  0  0  0  0 
  5  8  1  0  0  0  0 
  9  5  2  0  0  0  0 
 10  6  2  0  0  0  0 
  7  9  1  0  0  0  0 
  8 11  1  0  0  0  0 
  8 12  2  0  0  0  0 
 12 10  1  0  0  0  0 
M  END
> <Name>
1,5-DIMETHYLNAPHTHALENE

> <Source>
NIST3DMolFile

> <Tox>
-2.301

> <CAS>
571-61-9

$$$$

  CDK

 12 13  0  0  0  0  0  0  0  0999 V2000
    4.6371    3.9159    0.9133 C   0  0  0  0  0  0  0  0  0  0  0  0
    4.6535    5.4047    0.9133 C   0  0  0  0  0  0  0  0  0  0  0  0
    3.3881    3.2138    0.9133 C   0  0  0  0  0  0  0  0  0  0  0  0
    5.8181    3.2004    0.9117 C   0  0  0  0  0  0  0  0  0  0  0  0
    3.3821    1.8033    0.9114 C   0  0  0  0  0  0  0  0  0  0  0  0
    2.1349    3.8887    0.9154 C   0  0  0  0  0  0  0  0  0  0  0  0
    7.1638    3.8356    0.9119 C   0  0  0  0  0  0  0  0  0  0  0  0
    5.7951    1.7795    0.9096 C   0  0  0  0  0  0  0  0  0  0  0  0
    4.6148    1.0957    0.9091 C   0  0  0  0  0  0  0  0  0  0  0  0
    2.1475    1.0984    0.9111 C   0  0  0  0  0  0  0  0  0  0  0  0
    0.9576    3.1934    0.9151 C   0  0  0  0  0  0  0  0  0  0  0  0
    0.9609    1.7786    0.9127 C   0  0  0  0  0  0  0  0  0  0  0  0
  1  2  1  0  0  0  0 
  3  1  2  0  0  0  0 
  1  4  1  0  0  0  0 
  3  5  1  0  0  0  0 
  6  3  1  0  0  0  0 
  4  7  1  0  0  0  0 
  4  8  2  0  0  0  0 
  9  5  2  0  0  0  0 
  5 10  1  0  0  0  0 
 11  6  2  0  0  0  0 
  8  9  1  0  0  0  0 
 10 12  2  0  0  0  0 
 12 11  1  0  0  0  0 
M  END
> <Name>
1,2-DIMETHYLNAPHTHALENE

> <Source>
NIST3DMolFile

> <Tox>
-1.896

> <CAS>
573-98-8

$$$$

  CDK

 12 13  0  0  0  0  0  0  0  0999 V2000
   -0.6365    1.3584    0.0005 C   0  0  0  0  0  0  0  0  0  0  0  0
   -1.8846    0.7866    0.0008 C   0  0  0  0  0  0  0  0  0  0  0  0
    0.5254    0.5244    0.0000 C   0  0  0  0  0  0  0  0  0  0  0  0
   -0.5063    2.8400    0.0002 C   0  0  0  0  0  0  0  0  0  0  0  0
   -2.0486   -0.6223    0.0005 C   0  0  0  0  0  0  0  0  0  0  0  0
    0.3592   -0.8768    0.0005 C   0  0  0  0  0  0  0  0  0  0  0  0
    1.8449    1.0531   -0.0008 C   0  0  0  0  0  0  0  0  0  0  0  0
   -0.9461   -1.4375    0.0008 C   0  0  0  0  0  0  0  0  0  0  0  0
   -3.4258   -1.1793   -0.0016 C   0  0  0  0  0  0  0  0  0  0  0  0
    1.5035   -1.7200    0.0006 C   0  0  0  0  0  0  0  0  0  0  0  0
    2.9320    0.2213   -0.0008 C   0  0  0  0  0  0  0  0  0  0  0  0
    2.7612   -1.1813    0.0000 C   0  0  0  0  0  0  0  0  0  0  0  0
  1  2  2  0  0  0  0 
  1  3  1  0  0  0  0 
  1  4  1  0  0  0  0 
  2  5  1  0  0  0  0 
  6  3  1  0  0  0  0 
  7  3  2  0  0  0  0 
  5  8  2  0  0  0  0 
  5  9  1  0  0  0  0 
  8  6  1  0  0  0  0 
  6 10  2  0  0  0  0 
 11  7  1  0  0  0  0 
 10 12  1  0  0  0  0 
 12 11  2  0  0  0  0 
M  END
> <Name>
1,3-DIMETHYLNAPTHALENE

> <Source>
DougDB3DMolFile

> <Tox>
-1.635

> <CAS>
575-41-7

$$$$

  CDK

 12 13  0  0  0  0  0  0  0  0999 V2000
    3.9921   -2.3043    0.0000 C   0  0  0  0  0  0  0  0  0  0  0  0
    3.3277   -1.1491    0.0000 C   0  0  0  0  0  0  0  0  0  0  0  0
    3.3277   -3.4534    0.0000 C   0  0  0  0  0  0  0  0  0  0  0  0
    5.3208   -2.3043    0.0000 C   0  0  0  0  0  0  0  0  0  0  0  0
    1.9931   -1.1491    0.0000 C   0  0  0  0  0  0  0  0  0  0  0  0
    3.9921   -0.0000    0.0000 C   0  0  0  0  0  0  0  0  0  0  0  0
    1.9931   -3.4534    0.0000 C   0  0  0  0  0  0  0  0  0  0  0  0
    5.9852   -1.1491    0.0000 C   0  0  0  0  0  0  0  0  0  0  0  0
    5.9852   -3.4534    0.0000 C   0  0  0  0  0  0  0  0  0  0  0  0
    1.3287   -2.3043    0.0000 C   0  0  0  0  0  0  0  0  0  0  0  0
    5.3208   -0.0000    0.0000 C   0  0  0  0  0  0  0  0  0  0  0  0
    0.0000   -2.3043    0.0000 C   0  0  0  0  0  0  0  0  0  0  0  0
  1  2  2  0  0  0  0 
  1  3  1  0  0  0  0 
  1  4  1  0  0  0  0 
  2  5  1  0  0  0  0 
  2  6  1  0  0  0  0 
  7  3  2  0  0  0  0 
  8  4  2  0  0  0  0 
  4  9  1  0  0  0  0 
  5 10  2  0  0  0  0 
  6 11  2  0  0  0  0 
 10  7  1  0  0  0  0 
 11  8  1  0  0  0  0 
 10 12  1  0  0  0  0 
M  END
> <Name>
1,6-DIMETHYLNAPHTHALENE

> <Source>
DSSTox2DMolFile

> <Tox>
-1.836

> <CAS>
575-43-9

$$$$

  CDK

  9  9  0  0  0  0  0  0  0  0999 V2000
    0.0000   -2.3037    0.0000 Cl  0  0  0  0  0  0  0  0  0  0  0  0
    1.3315   -2.3037    0.0000 C   0  0  0  0  0  0  0  0  0  0  0  0
    1.9950   -1.1518    0.0000 C   0  0  0  0  0  0  0  0  0  0  0  0
    1.9950   -3.4555    0.0000 C   0  0  0  0  0  0  0  0  0  0  0  0
    1.3315   -0.0000    0.0000 Cl  0  0  0  0  0  0  0  0  0  0  0  0
    3.3265   -1.1518    0.0000 C   0  0  0  0  0  0  0  0  0  0  0  0
    3.3265   -3.4555    0.0000 C   0  0  0  0  0  0  0  0  0  0  0  0
    1.3315   -4.6073    0.0000 O   0  0  0  0  0  0  0  0  0  0  0  0
    3.9899   -2.3037    0.0000 C   0  0  0  0  0  0  0  0  0  0  0  0
  1  2  1  0  0  0  0 
  2  3  2  0  0  0  0 
  2  4  1  0  0  0  0 
  3  5  1  0  0  0  0 
  3  6  1  0  0  0  0 
  7  4  2  0  0  0  0 
  4  8  1  0  0  0  0 
  6  9  2  0  0  0  0 
  9  7  1  0  0  0  0 
M  END
> <Name>
2,3-DICHLOROPHENOL

> <Source>
DSSTox2DMolFile

> <Tox>
-1.237

> <CAS>
576-24-9

$$$$

  CDK

  9  9  0  0  0  0  0  0  0  0999 V2000
    3.4525   -1.9814    0.0000 C   0  0  0  0  0  0  0  0  0  0  0  0
    3.4525   -3.3238    0.0000 C   0  0  0  0  0  0  0  0  0  0  0  0
    2.2986   -1.3194    0.0000 C   0  0  0  0  0  0  0  0  0  0  0  0
    4.5972   -1.3194    0.0000 C   0  0  0  0  0  0  0  0  0  0  0  0
    2.2986   -3.9857    0.0000 C   0  0  0  0  0  0  0  0  0  0  0  0
    1.1447   -1.9814    0.0000 C   0  0  0  0  0  0  0  0  0  0  0  0
    2.2986   -0.0000    0.0000 O   0  0  0  0  0  0  0  0  0  0  0  0
    1.1447   -3.3238    0.0000 C   0  0  0  0  0  0  0  0  0  0  0  0
    0.0000   -1.3194    0.0000 C   0  0  0  0  0  0  0  0  0  0  0  0
  1  2  1  0  0  0  0 
  1  3  2  0  0  0  0 
  1  4  1  0  0  0  0 
  2  5  2  0  0  0  0 
  3  6  1  0  0  0  0 
  3  7  1  0  0  0  0 
  5  8  1  0  0  0  0 
  6  8  2  0  0  0  0 
  6  9  1  0  0  0  0 
M  END
> <Name>
2,6-DIMETHYLPHENOL

> <Source>
DSSTox2DMolFile

> <Tox>
-0.767

> <CAS>
576-26-1

$$$$

  CDK

 12 12  0  0  0  0  0  0  0  0999 V2000
    0.5126    1.7942    0.0000 C   0  0  0  0  0  0  0  0  0  0  0  0
    0.0000    2.6657    0.0000 C   0  0  0  0  0  0  0  0  0  0  0  0
    1.5379    1.7942    0.0000 C   0  0  0  0  0  0  0  0  0  0  0  0
    0.5126    3.4859    0.0000 C   0  0  0  0  0  0  0  0  0  0  0  0
    2.0505    0.8715    0.0000 C   0  0  0  0  0  0  0  0  0  0  0  0
    2.0505    2.6657    0.0000 C   0  0  0  0  0  0  0  0  0  0  0  0
    1.5379    3.4859    0.0000 C   0  0  0  0  0  0  0  0  0  0  0  0
    1.5379    0.0000    0.0000 C   0  0  0  0  0  0  0  0  0  0  0  0
    3.0245    0.8715    0.0000 C   0  0  0  0  0  0  0  0  0  0  0  0
    3.0245    2.6657    0.0000 C   0  0  0  0  0  0  0  0  0  0  0  0
    3.5371    1.7942    0.0000 C   0  0  0  0  0  0  0  0  0  0  0  0
    3.5371    3.4859    0.0000 C   0  0  0  0  0  0  0  0  0  0  0  0
  1  2  2  0  0  0  0 
  3  1  1  0  0  0  0 
  2  4  1  0  0  0  0 
  3  5  1  0  0  0  0 
  6  3  2  0  0  0  0 
  4  7  2  0  0  0  0 
  5  8  1  0  0  0  0 
  5  9  1  0  0  0  0 
  6 10  1  0  0  0  0 
  7  6  1  0  0  0  0 
 10 11  1  0  0  0  0 
 10 12  1  0  0  0  0 
M  END
> <Name>
1,2-DIISOPROPYLBENZENE

> <Source>
NIST2DMolFile

> <Tox>
-0.441

> <CAS>
577-55-9

$$$$

  CDK

  9  9  0  0  0  0  0  0  0  0999 V2000
    0.2596    2.2777   -0.1211 N   0  0  0  0  0  0  0  0  0  0  0  0
   -0.3055    0.9660   -0.0226 C   0  0  0  0  0  0  0  0  0  0  0  0
    0.4596   -0.1897   -0.2638 C   0  0  0  0  0  0  0  0  0  0  0  0
   -1.6826    0.8513    0.2248 C   0  0  0  0  0  0  0  0  0  0  0  0
   -0.1784   -1.4316   -0.2767 C   0  0  0  0  0  0  0  0  0  0  0  0
    1.9371   -0.1416   -0.5019 C   0  0  0  0  0  0  0  0  0  0  0  0
   -2.2922   -0.3939    0.2147 C   0  0  0  0  0  0  0  0  0  0  0  0
   -1.5423   -1.5377   -0.0412 C   0  0  0  0  0  0  0  0  0  0  0  0
    2.7094   -0.7088    0.6718 C   0  0  0  0  0  0  0  0  0  0  0  0
  1  2  1  0  0  0  0 
  2  3  1  0  0  0  0 
  2  4  2  0  0  0  0 
  3  5  2  0  0  0  0 
  3  6  1  0  0  0  0 
  7  4  1  0  0  0  0 
  5  8  1  0  0  0  0 
  6  9  1  0  0  0  0 
  8  7  2  0  0  0  0 
M  END
> <Name>
O-ETHYLANILINE

> <Source>
DougDB3DMolFile

> <Tox>
-0.770

> <CAS>
578-54-1

$$$$

  CDK

 11 11  0  0  0  0  0  0  0  0999 V2000
    2.3093   -1.3340    0.0000 C   0  0  0  0  0  0  0  0  0  0  0  0
    3.4455   -2.0057    0.0000 C   0  0  0  0  0  0  0  0  0  0  0  0
    1.1546   -2.0057    0.0000 C   0  0  0  0  0  0  0  0  0  0  0  0
    2.3093   -0.0000    0.0000 N   0  0  0  0  0  0  0  0  0  0  0  0
    3.4455   -3.3351    0.0000 C   0  0  0  0  0  0  0  0  0  0  0  0
    4.6002   -1.3340    0.0000 C   0  0  0  0  0  0  0  0  0  0  0  0
    1.1546   -3.3351    0.0000 C   0  0  0  0  0  0  0  0  0  0  0  0
    0.0000   -1.3340    0.0000 C   0  0  0  0  0  0  0  0  0  0  0  0
    2.3093   -3.9929    0.0000 C   0  0  0  0  0  0  0  0  0  0  0  0
    4.6002   -0.0000    0.0000 C   0  0  0  0  0  0  0  0  0  0  0  0
    0.0000   -0.0000    0.0000 C   0  0  0  0  0  0  0  0  0  0  0  0
  1  2  2  0  0  0  0 
  1  3  1  0  0  0  0 
  1  4  1  0  0  0  0 
  2  5  1  0  0  0  0 
  2  6  1  0  0  0  0 
  7  3  2  0  0  0  0 
  3  8  1  0  0  0  0 
  5  9  2  0  0  0  0 
  6 10  1  0  0  0  0 
  9  7  1  0  0  0  0 
  8 11  1  0  0  0  0 
M  END
> <Name>
2,6-DIETHYLANILINE

> <Source>
DSSTox2DMolFile

> <Tox>
-2.417

> <CAS>
579-66-8

$$$$

  CDK

 11 12  0  0  0  0  0  0  0  0999 V2000
   -3.9834    1.8773   -1.0478 N   0  0  0  0  0  0  0  0  0  0  0  0
   -2.6509    1.9631   -0.8740 C   0  0  0  0  0  0  0  0  0  0  0  0
   -4.6528    2.9918   -1.4215 C   0  0  0  0  0  0  0  0  0  0  0  0
   -1.9510    3.1720   -1.0705 C   0  0  0  0  0  0  0  0  0  0  0  0
   -1.9234    0.8402   -0.4896 C   0  0  0  0  0  0  0  0  0  0  0  0
   -4.0560    4.2174   -1.6373 C   0  0  0  0  0  0  0  0  0  0  0  0
   -0.5598    3.2256   -0.8800 C   0  0  0  0  0  0  0  0  0  0  0  0
   -2.6829    4.3027   -1.4574 C   0  0  0  0  0  0  0  0  0  0  0  0
   -0.5402    0.8932   -0.3002 C   0  0  0  0  0  0  0  0  0  0  0  0
    0.1428    2.0872   -0.4955 C   0  0  0  0  0  0  0  0  0  0  0  0
    1.5382    2.1456   -0.3065 N   0  0  0  0  0  0  0  0  0  0  0  0
  1  2  1  0  0  0  0 
  1  3  2  0  0  0  0 
  4  2  2  0  0  0  0 
  2  5  1  0  0  0  0 
  6  3  1  0  0  0  0 
  4  7  1  0  0  0  0 
  4  8  1  0  0  0  0 
  5  9  2  0  0  0  0 
  8  6  2  0  0  0  0 
  7 10  2  0  0  0  0 
 10  9  1  0  0  0  0 
 11 10  1  0  0  0  0 
M  END
> <Name>
6-AMINOQUINOLINE

> <Source>
Chemidplus3DMolFile

> <Tox>
-4.788

> <CAS>
580-15-4

$$$$

  CDK

 11 12  0  0  0  0  0  0  0  0999 V2000
   -3.9834    1.8773   -1.0478 N   0  0  0  0  0  0  0  0  0  0  0  0
   -2.6509    1.9631   -0.8740 C   0  0  0  0  0  0  0  0  0  0  0  0
   -4.6528    2.9918   -1.4215 C   0  0  0  0  0  0  0  0  0  0  0  0
   -1.9510    3.1720   -1.0705 C   0  0  0  0  0  0  0  0  0  0  0  0
   -1.9234    0.8402   -0.4896 C   0  0  0  0  0  0  0  0  0  0  0  0
   -4.0560    4.2174   -1.6373 C   0  0  0  0  0  0  0  0  0  0  0  0
   -2.6829    4.3027   -1.4574 C   0  0  0  0  0  0  0  0  0  0  0  0
   -0.5598    3.2256   -0.8800 C   0  0  0  0  0  0  0  0  0  0  0  0
   -0.5402    0.8932   -0.3002 C   0  0  0  0  0  0  0  0  0  0  0  0
   -4.8096    5.3367   -2.0240 N   0  0  0  0  0  0  0  0  0  0  0  0
    0.1428    2.0872   -0.4955 C   0  0  0  0  0  0  0  0  0  0  0  0
  1  2  1  0  0  0  0 
  1  3  2  0  0  0  0 
  4  2  1  0  0  0  0 
  2  5  2  0  0  0  0 
  6  3  1  0  0  0  0 
  4  7  1  0  0  0  0 
  4  8  2  0  0  0  0 
  5  9  1  0  0  0  0 
 10  6  1  0  0  0  0 
  7  6  2  0  0  0  0 
  8 11  1  0  0  0  0 
 11  9  2  0  0  0  0 
M  END
> <Name>
3-AMINOQUINOLINE

> <Source>
Chemidplus3DMolFile

> <Tox>
-4.539

> <CAS>
580-17-6

$$$$

  CDK

 12 13  0  0  0  0  0  0  0  0999 V2000
    5.8051    3.1832    1.1914 C   0  0  0  0  0  0  0  0  0  0  0  0
    7.0820    3.9287    1.0282 C   0  0  0  0  0  0  0  0  0  0  0  0
    4.6065    3.8381    1.0404 C   0  0  0  0  0  0  0  0  0  0  0  0
    5.8233    1.7949    1.5204 C   0  0  0  0  0  0  0  0  0  0  0  0
    3.3821    3.1374    1.1889 C   0  0  0  0  0  0  0  0  0  0  0  0
    7.1095    1.0726    1.7143 C   0  0  0  0  0  0  0  0  0  0  0  0
    4.6409    1.1108    1.6707 C   0  0  0  0  0  0  0  0  0  0  0  0
    3.3963    1.7658    1.5036 C   0  0  0  0  0  0  0  0  0  0  0  0
    2.1356    3.8026    1.0259 C   0  0  0  0  0  0  0  0  0  0  0  0
    2.1659    1.0680    1.6502 C   0  0  0  0  0  0  0  0  0  0  0  0
    0.9639    3.1112    1.1737 C   0  0  0  0  0  0  0  0  0  0  0  0
    0.9798    1.7317    1.4851 C   0  0  0  0  0  0  0  0  0  0  0  0
  1  2  1  0  0  0  0 
  3  1  2  0  0  0  0 
  1  4  1  0  0  0  0 
  5  3  1  0  0  0  0 
  4  6  1  0  0  0  0 
  4  7  2  0  0  0  0 
  5  8  2  0  0  0  0 
  9  5  1  0  0  0  0 
  7  8  1  0  0  0  0 
  8 10  1  0  0  0  0 
 11  9  2  0  0  0  0 
 10 12  2  0  0  0  0 
 12 11  1  0  0  0  0 
M  END
> <Name>
2,3-DIMETHYLNAPHTHALENE

> <Source>
NIST3DMolFile

> <Tox>
-2.959

> <CAS>
581-40-8

$$$$

  CDK

 12 13  0  0  0  0  0  0  0  0999 V2000
    3.4487   -0.6553    0.0000 C   0  0  0  0  0  0  0  0  0  0  0  0
    3.4487   -2.0071    0.0000 C   0  0  0  0  0  0  0  0  0  0  0  0
    2.2968   -0.0000    0.0000 C   0  0  0  0  0  0  0  0  0  0  0  0
    4.5730   -0.0000    0.0000 C   0  0  0  0  0  0  0  0  0  0  0  0
    2.2968   -2.6624    0.0000 C   0  0  0  0  0  0  0  0  0  0  0  0
    4.5730   -2.6624    0.0000 C   0  0  0  0  0  0  0  0  0  0  0  0
    1.1243   -0.6553    0.0000 C   0  0  0  0  0  0  0  0  0  0  0  0
    5.7248   -0.6553    0.0000 C   0  0  0  0  0  0  0  0  0  0  0  0
    1.1243   -2.0071    0.0000 C   0  0  0  0  0  0  0  0  0  0  0  0
    5.7248   -2.0071    0.0000 C   0  0  0  0  0  0  0  0  0  0  0  0
    6.8974   -0.0000    0.0000 C   0  0  0  0  0  0  0  0  0  0  0  0
    0.0000   -2.6624    0.0000 C   0  0  0  0  0  0  0  0  0  0  0  0
  1  2  2  0  0  0  0 
  1  3  1  0  0  0  0 
  1  4  1  0  0  0  0 
  2  5  1  0  0  0  0 
  2  6  1  0  0  0  0 
  3  7  2  0  0  0  0 
  4  8  2  0  0  0  0 
  5  9  2  0  0  0  0 
  6 10  2  0  0  0  0 
  9  7  1  0  0  0  0 
  8 10  1  0  0  0  0 
  8 11  1  0  0  0  0 
  9 12  1  0  0  0  0 
M  END
> <Name>
2,6-DIMETHYLNAPHTHALENE

> <Source>
DSSTox2DMolFile

> <Tox>
-2.367

> <CAS>
581-42-0

$$$$

  CDK

 12 13  0  0  0  0  0  0  0  0999 V2000
    1.9079    3.3099    0.8559 C   0  0  0  0  0  0  0  0  0  0  0  0
    0.6219    4.0532    0.8559 C   0  0  0  0  0  0  0  0  0  0  0  0
    3.1144    3.9649    0.8559 C   0  0  0  0  0  0  0  0  0  0  0  0
    1.8753    1.8900    0.8576 C   0  0  0  0  0  0  0  0  0  0  0  0
    4.3319    3.2323    0.8587 C   0  0  0  0  0  0  0  0  0  0  0  0
    3.0340    1.1651    0.8596 C   0  0  0  0  0  0  0  0  0  0  0  0
    4.2930    1.8239    0.8603 C   0  0  0  0  0  0  0  0  0  0  0  0
    5.5883    3.8959    0.8602 C   0  0  0  0  0  0  0  0  0  0  0  0
    5.5127    1.0951    0.8630 C   0  0  0  0  0  0  0  0  0  0  0  0
    6.7553    3.1735    0.8636 C   0  0  0  0  0  0  0  0  0  0  0  0
    6.7106    1.7540    0.8640 C   0  0  0  0  0  0  0  0  0  0  0  0
    8.0805    3.8448    0.8688 C   0  0  0  0  0  0  0  0  0  0  0  0
  1  2  1  0  0  0  0 
  1  3  2  0  0  0  0 
  4  1  1  0  0  0  0 
  3  5  1  0  0  0  0 
  6  4  2  0  0  0  0 
  7  5  2  0  0  0  0 
  5  8  1  0  0  0  0 
  7  6  1  0  0  0  0 
  9  7  1  0  0  0  0 
  8 10  2  0  0  0  0 
 11  9  2  0  0  0  0 
 10 11  1  0  0  0  0 
 10 12  1  0  0  0  0 
M  END
> <Name>
2,7-DIMETHYLNAPHTHALENE

> <Source>
NIST3DMolFile

> <Tox>
-2.246

> <CAS>
582-16-1

$$$$

  CDK

  8  8  0  0  0  0  0  0  0  0999 V2000
    3.1927    2.6433    0.8621 C   0  0  0  0  0  0  0  0  0  0  0  0
    4.5119    2.7052    1.6195 C   0  0  0  0  0  0  0  0  0  0  0  0
    2.0126    2.2070    1.7406 C   0  0  0  0  0  0  0  0  0  0  0  0
    4.2947    3.0432    3.0817 C   0  0  0  0  0  0  0  0  0  0  0  0
    2.4922    1.2532    2.8446 C   0  0  0  0  0  0  0  0  0  0  0  0
    0.9353    1.5876    0.8646 C   0  0  0  0  0  0  0  0  0  0  0  0
    3.4699    1.9728    3.7832 C   0  0  0  0  0  0  0  0  0  0  0  0
    1.3422    0.6808    3.6580 C   0  0  0  0  0  0  0  0  0  0  0  0
  1  2  1  0  0  0  0 
  3  1  1  0  0  0  0 
  4  2  1  0  0  0  0 
  5  3  1  0  0  0  0 
  3  6  1  0  0  0  0 
  4  7  1  0  0  0  0 
  7  5  1  0  0  0  0 
  5  8  1  0  0  0  0 
M  END
> <Name>
1,2-DIMETHYLCYCLOHEXANE

> <Source>
NIST3DMolFile

> <Tox>
1.161

> <CAS>
583-57-3

$$$$

  CDK

  8  8  0  0  0  0  0  0  0  0999 V2000
    0.0000    1.4993    0.0000 C   0  0  0  0  0  0  0  0  0  0  0  0
    0.8996    1.9991    0.0000 C   0  0  0  0  0  0  0  0  0  0  0  0
    0.0000    0.4998    0.0000 C   0  0  0  0  0  0  0  0  0  0  0  0
    1.7492    1.4993    0.0000 C   0  0  0  0  0  0  0  0  0  0  0  0
    0.8996    0.0000    0.0000 N   0  0  0  0  0  0  0  0  0  0  0  0
    1.7492    0.4998    0.0000 C   0  0  0  0  0  0  0  0  0  0  0  0
    2.5988    1.9991    0.0000 C   0  0  0  0  0  0  0  0  0  0  0  0
    2.5988    0.0000    0.0000 C   0  0  0  0  0  0  0  0  0  0  0  0
  1  2  2  0  0  0  0 
  3  1  1  0  0  0  0 
  2  4  1  0  0  0  0 
  5  3  2  0  0  0  0 
  4  6  2  0  0  0  0 
  4  7  1  0  0  0  0 
  6  5  1  0  0  0  0 
  6  8  1  0  0  0  0 
M  END
> <Name>
2,3-DIMETHYLPYRIDINE

> <Source>
NIST2DMolFile

> <Tox>
0.430

> <CAS>
583-61-9

$$$$

  CDK

  9  9  0  0  0  0  0  0  0  0999 V2000
    4.6082   -2.6589    0.0000 O   0  0  0  0  0  0  0  0  0  0  0  0
    3.4561   -1.9953    0.0000 C   0  0  0  0  0  0  0  0  0  0  0  0
    2.3041   -2.6589    0.0000 C   0  0  0  0  0  0  0  0  0  0  0  0
    3.4561   -0.6636    0.0000 C   0  0  0  0  0  0  0  0  0  0  0  0
    1.1520   -1.9953    0.0000 C   0  0  0  0  0  0  0  0  0  0  0  0
    2.3041   -0.0000    0.0000 C   0  0  0  0  0  0  0  0  0  0  0  0
    4.6082   -0.0000    0.0000 Cl  0  0  0  0  0  0  0  0  0  0  0  0
    0.0000   -2.6589    0.0000 Cl  0  0  0  0  0  0  0  0  0  0  0  0
    1.1520   -0.6636    0.0000 C   0  0  0  0  0  0  0  0  0  0  0  0
  1  2  1  0  0  0  0 
  2  3  2  0  0  0  0 
  2  4  1  0  0  0  0 
  3  5  1  0  0  0  0 
  6  4  2  0  0  0  0 
  4  7  1  0  0  0  0 
  5  8  1  0  0  0  0 
  5  9  2  0  0  0  0 
  9  6  1  0  0  0  0 
M  END
> <Name>
2,5-DICHLOROPHENOL

> <Source>
DSSTox2DMolFile

> <Tox>
-1.250

> <CAS>
583-78-8

$$$$

  CDK

  6  5  0  0  0  0  0  0  0  0999 V2000
    2.5083    0.1381   -0.3101 C   0  0  0  0  0  0  0  0  0  0  0  0
    1.2438    0.7324    0.2692 C   0  0  0  0  0  0  0  0  0  0  0  0
   -0.0068   -0.0352   -0.1974 C   0  0  0  0  0  0  0  0  0  0  0  0
   -1.2788    0.6231    0.3552 C   0  0  0  0  0  0  0  0  0  0  0  0
    0.0008   -1.3811    0.2470 O   0  0  0  0  0  0  0  0  0  0  0  0
   -2.5258    0.1378   -0.3486 C   0  0  0  0  0  0  0  0  0  0  0  0
  1  2  1  0  0  0  0 
  2  3  1  0  0  0  0 
  3  4  1  0  0  0  0 
  3  5  1  0  0  0  0 
  4  6  1  0  0  0  0 
M  END
> <Name>
3-PENTANOL

> <Source>
DougDB3DMolFile

> <Tox>
0.943

> <CAS>
584-02-1

$$$$

  CDK

  6  5  0  0  0  0  0  0  0  0999 V2000
    1.2347   -0.6663    0.3205 C   0  0  0  0  0  0  0  0  0  0  0  0
   -0.0314    0.0638   -0.1884 C   0  0  0  0  0  0  0  0  0  0  0  0
    2.3386   -0.1320   -0.3743 O   0  0  0  0  0  0  0  0  0  0  0  0
   -1.2864   -0.6286    0.3623 C   0  0  0  0  0  0  0  0  0  0  0  0
   -0.0608    1.4055    0.2599 O   0  0  0  0  0  0  0  0  0  0  0  0
   -2.5402   -0.1908   -0.3603 C   0  0  0  0  0  0  0  0  0  0  0  0
  1  2  1  0  0  0  0 
  1  3  1  0  0  0  0 
  2  4  1  0  0  0  0 
  2  5  1  0  0  0  0 
  4  6  1  0  0  0  0 
M  END
> <Name>
1,2-BUTANEDIOL

> <Source>
DougDB3DMolFile

> <Tox>
-1.300

> <CAS>
584-03-2

$$$$

  CDK

  8  7  0  0  0  0  0  0  0  0999 V2000
    3.2767    2.0121    1.7699 C   0  0  0  0  0  0  0  0  0  0  0  0
    4.6092    2.0252    1.0149 C   0  0  0  0  0  0  0  0  0  0  0  0
    2.1282    1.5281    0.8991 C   0  0  0  0  0  0  0  0  0  0  0  0
    5.6510    2.9009    1.7408 C   0  0  0  0  0  0  0  0  0  0  0  0
    5.1264    0.6022    0.8536 C   0  0  0  0  0  0  0  0  0  0  0  0
    0.8283    1.4911    1.6705 C   0  0  0  0  0  0  0  0  0  0  0  0
    5.1624    4.3326    1.9028 C   0  0  0  0  0  0  0  0  0  0  0  0
    6.9748    2.9097    0.9895 C   0  0  0  0  0  0  0  0  0  0  0  0
  1  2  1  0  0  0  0 
  1  3  1  0  0  0  0 
  2  4  1  0  0  0  0 
  2  5  1  0  0  0  0 
  3  6  1  0  0  0  0 
  4  7  1  0  0  0  0 
  4  8  1  0  0  0  0 
M  END
> <Name>
2,3-DIMETHYLHEXANE

> <Source>
NIST3DMolFile

> <Tox>
1.369

> <CAS>
584-94-1

$$$$

  CDK

 11 11  0  0  0  0  0  0  0  0999 V2000
    1.5155    3.4351    0.0000 C   0  0  0  0  0  0  0  0  0  0  0  0
    1.0608    2.5763    0.0000 C   0  0  0  0  0  0  0  0  0  0  0  0
    2.5258    3.4351    0.0000 C   0  0  0  0  0  0  0  0  0  0  0  0
    1.4650    1.7681    0.0000 C   0  0  0  0  0  0  0  0  0  0  0  0
    0.0000    2.5763    0.0000 O   0  0  0  0  0  0  0  0  0  0  0  0
    3.0310    2.5763    0.0000 C   0  0  0  0  0  0  0  0  0  0  0  0
    2.5258    1.7681    0.0000 C   0  0  0  0  0  0  0  0  0  0  0  0
    3.0310    0.8588    0.0000 C   0  0  0  0  0  0  0  0  0  0  0  0
    4.0413    0.8588    0.0000 C   0  0  0  0  0  0  0  0  0  0  0  0
    2.5258    0.0000    0.0000 C   0  0  0  0  0  0  0  0  0  0  0  0
    3.5361    0.0000    0.0000 C   0  0  0  0  0  0  0  0  0  0  0  0
  1  2  2  0  0  0  0 
  3  1  1  0  0  0  0 
  2  4  1  0  0  0  0 
  2  5  1  0  0  0  0 
  6  3  2  0  0  0  0 
  4  7  2  0  0  0  0 
  7  6  1  0  0  0  0 
  7  8  1  0  0  0  0 
  8  9  1  0  0  0  0 
  8 10  1  0  0  0  0 
  8 11  1  0  0  0  0 
M  END
> <Name>
PHENOL, 3-(1,1-DIMETHYLETHYL)-

> <Source>
NIST2DMolFile

> <Tox>
-1.697

> <CAS>
585-34-2

$$$$

  CDK

 10 10  0  0  0  0  0  0  0  0999 V2000
    0.0497    1.7396    0.0000 O   0  0  0  0  0  0  0  0  0  0  0  0
    0.4970    0.8449    0.0000 C   0  0  0  0  0  0  0  0  0  0  0  0
    0.0000    0.0000    0.0000 O   0  0  0  0  0  0  0  0  0  0  0  0
    1.5408    0.8449    0.0000 C   0  0  0  0  0  0  0  0  0  0  0  0
    2.0378    1.7396    0.0000 C   0  0  0  0  0  0  0  0  0  0  0  0
    2.0378    0.0000    0.0000 C   0  0  0  0  0  0  0  0  0  0  0  0
    3.0318    1.7396    0.0000 C   0  0  0  0  0  0  0  0  0  0  0  0
    3.0318    0.0000    0.0000 C   0  0  0  0  0  0  0  0  0  0  0  0
    3.5288    2.5845    0.0000 Br  0  0  0  0  0  0  0  0  0  0  0  0
    3.5288    0.8449    0.0000 C   0  0  0  0  0  0  0  0  0  0  0  0
  1  2  1  0  0  0  0 
  2  3  2  0  0  0  0 
  2  4  1  0  0  0  0 
  5  4  2  0  0  0  0 
  4  6  1  0  0  0  0 
  7  5  1  0  0  0  0 
  6  8  2  0  0  0  0 
  7  9  1  0  0  0  0 
 10  7  2  0  0  0  0 
  8 10  1  0  0  0  0 
M  END
> <Name>
M-BROMOBENZOIC ACID

> <Source>
NIST2DMolFile

> <Tox>
-4.043

> <CAS>
585-76-2

$$$$

  CDK

 10 10  0  0  0  0  0  0  0  0999 V2000
    1.9934    0.8472    0.0000 C   0  0  0  0  0  0  0  0  0  0  0  0
    2.9900    0.8472    0.0000 C   0  0  0  0  0  0  0  0  0  0  0  0
    1.4950    1.6944    0.0000 C   0  0  0  0  0  0  0  0  0  0  0  0
    3.4884    1.6944    0.0000 C   0  0  0  0  0  0  0  0  0  0  0  0
    3.4884    0.0000    0.0000 Br  0  0  0  0  0  0  0  0  0  0  0  0
    1.9934    2.5914    0.0000 C   0  0  0  0  0  0  0  0  0  0  0  0
    0.4983    1.6944    0.0000 N   0  0  0  0  0  0  0  0  0  0  0  0
    2.9900    2.5914    0.0000 C   0  0  0  0  0  0  0  0  0  0  0  0
    0.0000    0.8472    0.0000 O   0  0  0  0  0  0  0  0  0  0  0  0
    0.0000    2.5914    0.0000 O   0  0  0  0  0  0  0  0  0  0  0  0
  1  2  2  0  0  0  0 
  3  1  1  0  0  0  0 
  2  4  1  0  0  0  0 
  2  5  1  0  0  0  0 
  6  3  2  0  0  0  0 
  3  7  1  0  0  0  0 
  4  8  2  0  0  0  0 
  8  6  1  0  0  0  0 
  7  9  2  0  0  0  0 
  7 10  2  0  0  0  0 
M  END
> <Name>
3-BROMO-1-NITROBENZENE

> <Source>
NIST2DMolFile

> <Tox>
-1.155

> <CAS>
585-79-5

$$$$

  CDK

 10 10  0  0  0  0  0  0  0  0999 V2000
    3.9347    0.0275    0.0015 Br  0  0  0  0  0  0  0  0  0  0  0  0
    2.0450    0.0025    0.0000 C   0  0  0  0  0  0  0  0  0  0  0  0
    1.3638   -1.2148   -0.0003 C   0  0  0  0  0  0  0  0  0  0  0  0
    1.3314    1.2011   -0.0003 C   0  0  0  0  0  0  0  0  0  0  0  0
   -0.0309   -1.2337   -0.0009 C   0  0  0  0  0  0  0  0  0  0  0  0
   -0.0634    1.1822   -0.0008 C   0  0  0  0  0  0  0  0  0  0  0  0
   -0.7445   -0.0352   -0.0012 C   0  0  0  0  0  0  0  0  0  0  0  0
   -2.1988   -0.0547    0.0000 C   0  0  0  0  0  0  0  0  0  0  0  0
   -2.7360    1.1960    0.0009 O   0  0  0  0  0  0  0  0  0  0  0  0
   -2.9012   -1.0709    0.0012 O   0  0  0  0  0  0  0  0  0  0  0  0
  1  2  1  0  0  0  0 
  3  2  2  0  0  0  0 
  4  2  1  0  0  0  0 
  5  3  1  0  0  0  0 
  6  4  2  0  0  0  0 
  7  5  2  0  0  0  0 
  7  6  1  0  0  0  0 
  7  8  1  0  0  0  0 
  9  8  1  0  0  0  0 
 10  8  2  0  0  0  0 
M  END
> <Name>
P-BROMOBENZOIC ACID

> <Source>
Chemidplus3DMolFile

> <Tox>
-5.002

> <CAS>
586-76-5

$$$$

  CDK

  9  9  0  0  0  0  0  0  0  0999 V2000
    5.9806   -1.1542    0.0000 N   0  0  0  0  0  0  0  0  0  0  0  0
    4.6529   -1.1542    0.0000 C   0  0  0  0  0  0  0  0  0  0  0  0
    3.9890   -2.3025    0.0000 C   0  0  0  0  0  0  0  0  0  0  0  0
    3.9890   -0.0000    0.0000 C   0  0  0  0  0  0  0  0  0  0  0  0
    2.6554   -2.3025    0.0000 C   0  0  0  0  0  0  0  0  0  0  0  0
    2.6554   -0.0000    0.0000 C   0  0  0  0  0  0  0  0  0  0  0  0
    1.9915   -1.1542    0.0000 C   0  0  0  0  0  0  0  0  0  0  0  0
    0.6638   -1.1542    0.0000 C   0  0  0  0  0  0  0  0  0  0  0  0
    0.0000   -0.0000    0.0000 C   0  0  0  0  0  0  0  0  0  0  0  0
  1  2  1  0  0  0  0 
  2  3  2  0  0  0  0 
  2  4  1  0  0  0  0 
  3  5  1  0  0  0  0 
  6  4  2  0  0  0  0 
  5  7  2  0  0  0  0 
  7  6  1  0  0  0  0 
  7  8  1  0  0  0  0 
  8  9  1  0  0  0  0 
M  END
> <Name>
P-ETHYLANILINE

> <Source>
DSSTox2DMolFile

> <Tox>
-0.845

> <CAS>
589-16-2

$$$$

  CDK

  7  6  0  0  0  0  0  0  0  0999 V2000
    3.2686    3.3958    1.1888 C   0  0  0  0  0  0  0  0  0  0  0  0
    4.0572    2.1702    1.6585 C   0  0  0  0  0  0  0  0  0  0  0  0
    1.8505    3.3937    1.7394 C   0  0  0  0  0  0  0  0  0  0  0  0
    5.5272    2.3078    1.2582 C   0  0  0  0  0  0  0  0  0  0  0  0
    3.4431    0.9020    1.0852 C   0  0  0  0  0  0  0  0  0  0  0  0
    1.0185    4.5059    1.1446 C   0  0  0  0  0  0  0  0  0  0  0  0
    6.4188    1.3203    1.9775 C   0  0  0  0  0  0  0  0  0  0  0  0
  1  2  1  0  0  0  0 
  1  3  1  0  0  0  0 
  2  4  1  0  0  0  0 
  2  5  1  0  0  0  0 
  3  6  1  0  0  0  0 
  4  7  1  0  0  0  0 
M  END
> <Name>
3-METHYLHEXANE

> <Source>
NIST3DMolFile

> <Tox>
1.789

> <CAS>
589-34-4

$$$$

  CDK

  8  7  0  0  0  0  0  0  0  0999 V2000
    4.5583    2.7747    2.2818 C   0  0  0  0  0  0  0  0  0  0  0  0
    3.3729    1.9626    1.7514 C   0  0  0  0  0  0  0  0  0  0  0  0
    5.9117    2.3086    1.7351 C   0  0  0  0  0  0  0  0  0  0  0  0
    2.0954    2.8086    1.7795 C   0  0  0  0  0  0  0  0  0  0  0  0
    3.1605    0.6868    2.5517 C   0  0  0  0  0  0  0  0  0  0  0  0
    6.4468    1.1091    2.5000 C   0  0  0  0  0  0  0  0  0  0  0  0
    6.9203    3.4465    1.7960 C   0  0  0  0  0  0  0  0  0  0  0  0
    0.9496    2.1075    1.0829 C   0  0  0  0  0  0  0  0  0  0  0  0
  1  2  1  0  0  0  0 
  1  3  1  0  0  0  0 
  2  4  1  0  0  0  0 
  2  5  1  0  0  0  0 
  3  6  1  0  0  0  0 
  3  7  1  0  0  0  0 
  4  8  1  0  0  0  0 
M  END
> <Name>
2,4-DIMETHYLHEXANE

> <Source>
NIST3DMolFile

> <Tox>
1.483

> <CAS>
589-43-5

$$$$

  CDK

  8  7  0  0  0  0  0  0  0  0999 V2000
    3.4482    0.0000    0.0000 C   0  0  0  0  0  0  0  0  0  0  0  0
    2.5986    0.4997    0.0000 C   0  0  0  0  0  0  0  0  0  0  0  0
    4.3477    0.4997    0.0000 C   0  0  0  0  0  0  0  0  0  0  0  0
    1.7491    0.0000    0.0000 C   0  0  0  0  0  0  0  0  0  0  0  0
    2.5986    1.4992    0.0000 O   0  0  0  0  0  0  0  0  0  0  0  0
    5.1972    0.0000    0.0000 C   0  0  0  0  0  0  0  0  0  0  0  0
    0.8495    0.4997    0.0000 C   0  0  0  0  0  0  0  0  0  0  0  0
    0.0000    0.0000    0.0000 C   0  0  0  0  0  0  0  0  0  0  0  0
  1  2  1  0  0  0  0 
  1  3  1  0  0  0  0 
  2  4  1  0  0  0  0 
  2  5  1  0  0  0  0 
  3  6  1  0  0  0  0 
  4  7  1  0  0  0  0 
  7  8  1  0  0  0  0 
M  END
> <Name>
4-HEPTANOL

> <Source>
NIST2DMolFile

> <Tox>
-0.005

> <CAS>
589-55-9

$$$$

  CDK

 11 10  0  0  0  0  0  0  0  0999 V2000
    2.5914    1.4950    0.0000 O   0  0  0  0  0  0  0  0  0  0  0  0
    3.4884    0.9967    0.0000 C   0  0  0  0  0  0  0  0  0  0  0  0
    1.7442    0.9967    0.0000 C   0  0  0  0  0  0  0  0  0  0  0  0
    4.3356    1.4950    0.0000 C   0  0  0  0  0  0  0  0  0  0  0  0
    3.4884    0.0000    0.0000 O   0  0  0  0  0  0  0  0  0  0  0  0
    0.8970    1.4950    0.0000 C   0  0  0  0  0  0  0  0  0  0  0  0
    5.1827    0.9967    0.0000 C   0  0  0  0  0  0  0  0  0  0  0  0
    0.8970    2.4917    0.0000 C   0  0  0  0  0  0  0  0  0  0  0  0
    0.0000    0.9967    0.0000 C   0  0  0  0  0  0  0  0  0  0  0  0
    5.1827    0.0000    0.0000 C   0  0  0  0  0  0  0  0  0  0  0  0
    6.0798    1.4950    0.0000 C   0  0  0  0  0  0  0  0  0  0  0  0
  1  2  1  0  0  0  0 
  1  3  1  0  0  0  0 
  2  4  1  0  0  0  0 
  2  5  2  0  0  0  0 
  3  6  1  0  0  0  0 
  4  7  1  0  0  0  0 
  6  8  1  0  0  0  0 
  6  9  1  0  0  0  0 
  7 10  1  0  0  0  0 
  7 11  1  0  0  0  0 
M  END
> <Name>
ISOBUTYL ISOVALERATE

> <Source>
NIST2DMolFile

> <Tox>
0.265

> <CAS>
589-59-3

$$$$

  CDK

  8  7  0  0  0  0  0  0  0  0999 V2000
    4.6188    2.7561    1.9035 C   0  0  0  0  0  0  0  0  0  0  0  0
    3.3622    2.0071    1.4510 C   0  0  0  0  0  0  0  0  0  0  0  0
    5.8832    2.0821    1.3935 C   0  0  0  0  0  0  0  0  0  0  0  0
    2.1134    2.8177    1.8023 C   0  0  0  0  0  0  0  0  0  0  0  0
    3.3216    0.6244    2.0838 C   0  0  0  0  0  0  0  0  0  0  0  0
    7.1322    2.7192    1.9783 C   0  0  0  0  0  0  0  0  0  0  0  0
    0.8769    2.3148    1.0914 C   0  0  0  0  0  0  0  0  0  0  0  0
    8.3873    2.0569    1.4564 C   0  0  0  0  0  0  0  0  0  0  0  0
  1  2  1  0  0  0  0 
  1  3  1  0  0  0  0 
  2  4  1  0  0  0  0 
  2  5  1  0  0  0  0 
  3  6  1  0  0  0  0 
  4  7  1  0  0  0  0 
  6  8  1  0  0  0  0 
M  END
> <Name>
3-METHYLHEPTANE

> <Source>
NIST3DMolFile

> <Tox>
1.292

> <CAS>
589-81-1

$$$$

  CDK

  8  8  0  0  0  0  0  0  0  0999 V2000
    0.5204    2.5285    1.8714 C   0  0  0  0  0  0  0  0  0  0  0  0
    2.0228    2.4659    2.0819 C   0  0  0  0  0  0  0  0  0  0  0  0
    2.7298    3.5226    1.2338 C   0  0  0  0  0  0  0  0  0  0  0  0
    2.5575    1.0761    1.7389 C   0  0  0  0  0  0  0  0  0  0  0  0
    4.2368    3.4549    1.4203 C   0  0  0  0  0  0  0  0  0  0  0  0
    4.0646    1.0085    1.9247 C   0  0  0  0  0  0  0  0  0  0  0  0
    4.7713    2.0651    1.0766 C   0  0  0  0  0  0  0  0  0  0  0  0
    6.2738    2.0025    1.2867 C   0  0  0  0  0  0  0  0  0  0  0  0
  1  2  1  0  0  0  0 
  2  3  1  0  0  0  0 
  4  2  1  0  0  0  0 
  3  5  1  0  0  0  0 
  6  4  1  0  0  0  0 
  5  7  1  0  0  0  0 
  7  6  1  0  0  0  0 
  7  8  1  0  0  0  0 
M  END
> <Name>
1,4-DIMETHYLCYCLOHEXANE

> <Source>
NIST3DMolFile

> <Tox>
1.253

> <CAS>
589-90-2

$$$$

  CDK

  8  8  0  0  0  0  0  0  0  0999 V2000
   -1.3732   -0.0122   -0.0012 C   0  0  0  0  0  0  0  0  0  0  0  0
   -0.6818   -1.2269   -0.0014 C   0  0  0  0  0  0  0  0  0  0  0  0
   -0.6978    1.1729   -0.0014 N   0  0  0  0  0  0  0  0  0  0  0  0
   -2.8618    0.0386    0.0023 C   0  0  0  0  0  0  0  0  0  0  0  0
    0.7102   -1.2243   -0.0006 C   0  0  0  0  0  0  0  0  0  0  0  0
    0.6485    1.1767   -0.0009 C   0  0  0  0  0  0  0  0  0  0  0  0
    1.3948   -0.0109   -0.0001 C   0  0  0  0  0  0  0  0  0  0  0  0
    2.8769    0.0441    0.0018 C   0  0  0  0  0  0  0  0  0  0  0  0
  1  2  1  0  0  0  0 
  1  3  2  0  0  0  0 
  1  4  1  0  0  0  0 
  2  5  2  0  0  0  0 
  6  3  1  0  0  0  0 
  5  7  1  0  0  0  0 
  7  6  2  0  0  0  0 
  7  8  1  0  0  0  0 
M  END
> <Name>
2,5-DIMETHYLPYRIDINE

> <Source>
DougDB3DMolFile

> <Tox>
0.526

> <CAS>
589-93-5

$$$$

  CDK

  9  8  0  0  0  0  0  0  0  0999 V2000
    2.5892    1.4938    0.0000 C   0  0  0  0  0  0  0  0  0  0  0  0
    1.7427    0.9959    0.0000 C   0  0  0  0  0  0  0  0  0  0  0  0
    3.4855    0.9959    0.0000 C   0  0  0  0  0  0  0  0  0  0  0  0
    0.8963    1.4938    0.0000 C   0  0  0  0  0  0  0  0  0  0  0  0
    1.7427    0.0000    0.0000 O   0  0  0  0  0  0  0  0  0  0  0  0
    4.3320    1.4938    0.0000 C   0  0  0  0  0  0  0  0  0  0  0  0
    0.0000    0.9959    0.0000 C   0  0  0  0  0  0  0  0  0  0  0  0
    5.1784    0.9959    0.0000 C   0  0  0  0  0  0  0  0  0  0  0  0
    6.0747    1.4938    0.0000 C   0  0  0  0  0  0  0  0  0  0  0  0
  1  2  1  0  0  0  0 
  1  3  1  0  0  0  0 
  2  4  1  0  0  0  0 
  2  5  1  0  0  0  0 
  3  6  1  0  0  0  0 
  4  7  1  0  0  0  0 
  6  8  1  0  0  0  0 
  8  9  1  0  0  0  0 
M  END
> <Name>
3-OCTANOL

> <Source>
NIST2DMolFile

> <Tox>
-0.592

> <CAS>
589-98-0

$$$$

  CDK

  4  3  0  0  0  0  0  0  0  0999 V2000
    0.0000   -1.1531    0.0000 C   0  0  0  0  0  0  0  0  0  0  0  0
    0.6563   -0.0000    0.0000 C   0  0  0  0  0  0  0  0  0  0  0  0
    1.9847   -0.0000    0.0000 C   0  0  0  0  0  0  0  0  0  0  0  0
    2.6569   -1.1531    0.0000 C   0  0  0  0  0  0  0  0  0  0  0  0
  1  2  1  0  0  0  0 
  2  3  2  0  0  0  0 
  3  4  1  0  0  0  0 
M  END
> <Name>
CIS-2-BUTENE

> <Source>
DSSTox2DMolFile

> <Tox>
3.204

> <CAS>
590-18-1

$$$$

  CDK

  4  3  0  0  0  0  0  0  0  0999 V2000
    0.0000   -0.0000    0.0000 C   0  0  0  0  0  0  0  0  0  0  0  0
    1.1483   -0.6690    0.0000 C   0  0  0  0  0  0  0  0  0  0  0  0
    2.3001   -0.0000    0.0000 C   0  0  0  0  0  0  0  0  0  0  0  0
    3.4485   -0.6690    0.0000 C   0  0  0  0  0  0  0  0  0  0  0  0
  1  2  2  0  0  0  0 
  2  3  2  0  0  0  0 
  3  4  1  0  0  0  0 
M  END
> <Name>
1,2-BUTADIENE

> <Source>
DSSTox2DMolFile

> <Tox>
3.100

> <CAS>
590-19-2

$$$$

  CDK

  4  3  0  0  0  0  0  0  0  0999 V2000
    0.0000   -0.0000    0.0000 C   0  0  0  0  0  0  0  0  0  0  0  0
    1.1513   -0.6638    0.0000 C   0  0  0  0  0  0  0  0  0  0  0  0
    2.3061   -0.0000    0.0000 C   0  0  0  0  0  0  0  0  0  0  0  0
    3.4575   -0.6638    0.0000 Cl  0  0  0  0  0  0  0  0  0  0  0  0
  1  2  1  0  0  0  0 
  2  3  2  0  0  0  0 
  3  4  1  0  0  0  0 
M  END
> <Name>
1-CHLOROPROPENE

> <Source>
DSSTox2DMolFile

> <Tox>
2.705

> <CAS>
590-21-6

$$$$

  CDK

  4  3  0  0  0  0  0  0  0  0999 V2000
    0.2562    0.2562    0.0000 C   0  0  0  0  0  0  0  0  0  0  0  0
   -0.9562    0.9562    0.0000 C   0  0  0  0  0  0  0  0  0  0  0  0
    1.4687    0.9562    0.0000 I   0  0  0  0  0  0  0  0  0  0  0  0
   -2.1687    0.2562    0.0000 I   0  0  0  0  0  0  0  0  0  0  0  0
  2  1  2  0  0  0  0 
  1  3  1  0  0  0  0 
  2  4  1  0  0  0  0 
M  END
> <Name>
1,2-DIIODOETHENE (TRANS)

> <Source>
IndexNet2DMolFile

> <Tox>
0.053

> <CAS>
590-27-2

$$$$

  CDK

  7  6  0  0  0  0  0  0  0  0999 V2000
    3.2807    2.3018    2.0991 C   0  0  0  0  0  0  0  0  0  0  0  0
    1.7535    2.1838    1.9484 C   0  0  0  0  0  0  0  0  0  0  0  0
    3.7002    3.6303    2.7110 C   0  0  0  0  0  0  0  0  0  0  0  0
    1.4146    0.8288    1.3301 C   0  0  0  0  0  0  0  0  0  0  0  0
    1.2396    3.2953    1.0350 C   0  0  0  0  0  0  0  0  0  0  0  0
    1.0921    2.2889    3.3215 C   0  0  0  0  0  0  0  0  0  0  0  0
    5.1990    3.7347    2.8562 C   0  0  0  0  0  0  0  0  0  0  0  0
  1  2  1  0  0  0  0 
  1  3  1  0  0  0  0 
  2  4  1  0  0  0  0 
  2  5  1  0  0  0  0 
  2  6  1  0  0  0  0 
  3  7  1  0  0  0  0 
M  END
> <Name>
2,2-DIMETHYLPENTANE

> <Source>
NIST3DMolFile

> <Tox>
2.021

> <CAS>
590-35-2

$$$$

  CDK

  7  6  0  0  0  0  0  0  0  0999 V2000
    0.8998   -0.0338    0.0165 C   0  0  0  0  0  0  0  0  0  0  0  0
   -0.5148   -0.6577    0.0583 C   0  0  0  0  0  0  0  0  0  0  0  0
    1.0531    1.0130    1.1244 C   0  0  0  0  0  0  0  0  0  0  0  0
    1.9441   -1.1455    0.1984 C   0  0  0  0  0  0  0  0  0  0  0  0
    1.1323    0.6546   -1.2075 O   0  0  0  0  0  0  0  0  0  0  0  0
   -1.6187    0.3644   -0.1604 C   0  0  0  0  0  0  0  0  0  0  0  0
   -2.9842   -0.2282    0.0994 C   0  0  0  0  0  0  0  0  0  0  0  0
  1  2  1  0  0  0  0 
  1  3  1  0  0  0  0 
  1  4  1  0  0  0  0 
  1  5  1  0  0  0  0 
  2  6  1  0  0  0  0 
  6  7  1  0  0  0  0 
M  END
> <Name>
2-METHYL-2-PENTANOL

> <Source>
DougDB3DMolFile

> <Tox>
0.934

> <CAS>
590-36-3

$$$$

  CDK

  8  8  0  0  0  0  0  0  0  0999 V2000
    0.6742    2.5314    2.8065 C   0  0  0  0  0  0  0  0  0  0  0  0
    1.9202    2.1125    2.0272 C   0  0  0  0  0  0  0  0  0  0  0  0
    1.4925    1.5449    0.6744 C   0  0  0  0  0  0  0  0  0  0  0  0
    2.8201    3.3396    1.8085 C   0  0  0  0  0  0  0  0  0  0  0  0
    2.6870    1.0609    2.8466 C   0  0  0  0  0  0  0  0  0  0  0  0
    4.1321    2.9457    1.1488 C   0  0  0  0  0  0  0  0  0  0  0  0
    4.0361    0.7033    2.2428 C   0  0  0  0  0  0  0  0  0  0  0  0
    4.8852    1.9419    2.0060 C   0  0  0  0  0  0  0  0  0  0  0  0
  1  2  1  0  0  0  0 
  2  3  1  0  0  0  0 
  2  4  1  0  0  0  0 
  5  2  1  0  0  0  0 
  4  6  1  0  0  0  0 
  7  5  1  0  0  0  0 
  6  8  1  0  0  0  0 
  8  7  1  0  0  0  0 
M  END
> <Name>
1,1-DIMETHYL CYCLOHEXANE

> <Source>
NIST3DMolFile

> <Tox>
1.356

> <CAS>
590-66-9

$$$$

  CDK

  8  7  0  0  0  0  0  0  0  0999 V2000
    3.4157    2.6948    2.5352 C   0  0  0  0  0  0  0  0  0  0  0  0
    2.0812    1.9320    2.4537 C   0  0  0  0  0  0  0  0  0  0  0  0
    4.5783    1.8853    1.9792 C   0  0  0  0  0  0  0  0  0  0  0  0
    0.9682    2.8087    3.0250 C   0  0  0  0  0  0  0  0  0  0  0  0
    2.1742    0.6436    3.2698 C   0  0  0  0  0  0  0  0  0  0  0  0
    1.7635    1.6044    0.9956 C   0  0  0  0  0  0  0  0  0  0  0  0
    5.9035    2.6227    2.0619 C   0  0  0  0  0  0  0  0  0  0  0  0
    6.0321    3.7095    1.0176 C   0  0  0  0  0  0  0  0  0  0  0  0
  1  2  1  0  0  0  0 
  1  3  1  0  0  0  0 
  2  4  1  0  0  0  0 
  2  5  1  0  0  0  0 
  2  6  1  0  0  0  0 
  3  7  1  0  0  0  0 
  7  8  1  0  0  0  0 
M  END
> <Name>
2,2-DIMETHYLHEXANE

> <Source>
NIST3DMolFile

> <Tox>
1.531

> <CAS>
590-73-8

$$$$

  CDK

  8  8  0  0  0  0  0  0  0  0999 V2000
    1.6454    2.0289    1.4406 C   0  0  0  0  0  0  0  0  0  0  0  0
    2.8012    1.1107    1.0639 C   0  0  0  0  0  0  0  0  0  0  0  0
    1.9983    2.9694    2.5971 C   0  0  0  0  0  0  0  0  0  0  0  0
    4.1459    1.7662    1.3214 C   0  0  0  0  0  0  0  0  0  0  0  0
    3.0199    2.3173    3.5234 C   0  0  0  0  0  0  0  0  0  0  0  0
    0.7501    3.3665    3.3658 C   0  0  0  0  0  0  0  0  0  0  0  0
    4.3527    2.0809    2.8069 C   0  0  0  0  0  0  0  0  0  0  0  0
    5.1255    0.9701    3.4991 C   0  0  0  0  0  0  0  0  0  0  0  0
  2  1  1  0  0  0  0 
  1  3  1  0  0  0  0 
  4  2  1  0  0  0  0 
  3  5  1  0  0  0  0 
  3  6  1  0  0  0  0 
  7  4  1  0  0  0  0 
  5  7  1  0  0  0  0 
  7  8  1  0  0  0  0 
M  END
> <Name>
1,3-DIMETHYLCYCLOHEXANE

> <Source>
NIST3DMolFile

> <Tox>
1.330

> <CAS>
591-21-9

$$$$

  CDK

  8  8  0  0  0  0  0  0  0  0999 V2000
    3.4898    0.0499    0.0000 C   0  0  0  0  0  0  0  0  0  0  0  0
    2.5924    0.5484    0.0000 C   0  0  0  0  0  0  0  0  0  0  0  0
    1.7449    0.0000    0.0000 C   0  0  0  0  0  0  0  0  0  0  0  0
    2.5924    1.4956    0.0000 C   0  0  0  0  0  0  0  0  0  0  0  0
    0.8475    0.4985    0.0000 C   0  0  0  0  0  0  0  0  0  0  0  0
    1.6950    1.9942    0.0000 N   0  0  0  0  0  0  0  0  0  0  0  0
    0.0000    0.0000    0.0000 C   0  0  0  0  0  0  0  0  0  0  0  0
    0.8475    1.4956    0.0000 C   0  0  0  0  0  0  0  0  0  0  0  0
  1  2  1  0  0  0  0 
  2  3  2  0  0  0  0 
  4  2  1  0  0  0  0 
  3  5  1  0  0  0  0 
  6  4  2  0  0  0  0 
  5  7  1  0  0  0  0 
  5  8  2  0  0  0  0 
  8  6  1  0  0  0  0 
M  END
> <Name>
3,5-DIMETHYLPYRIDINE

> <Source>
NIST2DMolFile

> <Tox>
0.241

> <CAS>
591-22-0

$$$$

  CDK

  8  8  0  0  0  0  0  0  0  0999 V2000
    2.9934    1.7462    0.0000 C   0  0  0  0  0  0  0  0  0  0  0  0
    1.9956    1.7462    0.0000 C   0  0  0  0  0  0  0  0  0  0  0  0
    1.4967    0.8481    0.0000 C   0  0  0  0  0  0  0  0  0  0  0  0
    1.4967    2.5943    0.0000 C   0  0  0  0  0  0  0  0  0  0  0  0
    0.4989    0.8481    0.0000 C   0  0  0  0  0  0  0  0  0  0  0  0
    0.4989    2.5943    0.0000 C   0  0  0  0  0  0  0  0  0  0  0  0
    0.0000    0.0000    0.0000 O   0  0  0  0  0  0  0  0  0  0  0  0
    0.0000    1.7462    0.0000 C   0  0  0  0  0  0  0  0  0  0  0  0
  1  2  1  0  0  0  0 
  3  2  1  0  0  0  0 
  2  4  1  0  0  0  0 
  5  3  1  0  0  0  0 
  4  6  1  0  0  0  0 
  5  7  1  0  0  0  0 
  8  5  1  0  0  0  0 
  6  8  1  0  0  0  0 
M  END
> <Name>
3-METHYLCYCLOHEXANOL

> <Source>
NIST2DMolFile

> <Tox>
-0.320

> <CAS>
591-23-1

$$$$

  CDK

  8  8  0  0  0  0  0  0  0  0999 V2000
    3.0332    1.7404    0.0000 C   0  0  0  0  0  0  0  0  0  0  0  0
    2.0387    1.7404    0.0000 C   0  0  0  0  0  0  0  0  0  0  0  0
    1.5415    0.8453    0.0000 C   0  0  0  0  0  0  0  0  0  0  0  0
    1.5415    2.5857    0.0000 C   0  0  0  0  0  0  0  0  0  0  0  0
    0.4972    0.8453    0.0000 C   0  0  0  0  0  0  0  0  0  0  0  0
    0.5470    2.5857    0.0000 C   0  0  0  0  0  0  0  0  0  0  0  0
    0.0000    0.0000    0.0000 O   0  0  0  0  0  0  0  0  0  0  0  0
    0.0497    1.7404    0.0000 C   0  0  0  0  0  0  0  0  0  0  0  0
  1  2  1  0  0  0  0 
  3  2  1  0  0  0  0 
  2  4  1  0  0  0  0 
  5  3  1  0  0  0  0 
  4  6  1  0  0  0  0 
  5  7  2  0  0  0  0 
  8  5  1  0  0  0  0 
  6  8  1  0  0  0  0 
M  END
> <Name>
3-METHYLCYCLOHEXANONE

> <Source>
NIST2DMolFile

> <Tox>
0.176

> <CAS>
591-24-2

$$$$

  CDK

  9  9  0  0  0  0  0  0  0  0999 V2000
    1.3315   -2.3037    0.0000 C   0  0  0  0  0  0  0  0  0  0  0  0
    1.9950   -1.1518    0.0000 C   0  0  0  0  0  0  0  0  0  0  0  0
    1.9950   -3.4555    0.0000 C   0  0  0  0  0  0  0  0  0  0  0  0
    0.0000   -2.3037    0.0000 O   0  0  0  0  0  0  0  0  0  0  0  0
    3.3265   -1.1518    0.0000 C   0  0  0  0  0  0  0  0  0  0  0  0
    3.3265   -3.4555    0.0000 C   0  0  0  0  0  0  0  0  0  0  0  0
    3.9899   -2.3037    0.0000 C   0  0  0  0  0  0  0  0  0  0  0  0
    3.9899   -0.0000    0.0000 Cl  0  0  0  0  0  0  0  0  0  0  0  0
    3.9899   -4.6073    0.0000 Cl  0  0  0  0  0  0  0  0  0  0  0  0
  1  2  1  0  0  0  0 
  1  3  2  0  0  0  0 
  1  4  1  0  0  0  0 
  2  5  2  0  0  0  0 
  6  3  1  0  0  0  0 
  5  7  1  0  0  0  0 
  5  8  1  0  0  0  0 
  7  6  2  0  0  0  0 
  6  9  1  0  0  0  0 
M  END
> <Name>
3,5-DICHLOROPHENOL

> <Source>
DSSTox2DMolFile

> <Tox>
-2.075

> <CAS>
591-35-5

$$$$

  CDK

  7  7  0  0  0  0  0  0  0  0999 V2000
    0.6367    2.4523    1.2634 C   0  0  0  0  0  0  0  0  0  0  0  0
    2.0331    2.5429    1.8574 C   0  0  0  0  0  0  0  0  0  0  0  0
    2.8768    3.5614    1.0904 C   0  0  0  0  0  0  0  0  0  0  0  0
    2.6836    1.1976    1.8814 C   0  0  0  0  0  0  0  0  0  0  0  0
    4.3321    3.4817    1.5169 C   0  0  0  0  0  0  0  0  0  0  0  0
    3.9761    1.0056    1.6154 C   0  0  0  0  0  0  0  0  0  0  0  0
    4.9054    2.1016    1.2338 C   0  0  0  0  0  0  0  0  0  0  0  0
  1  2  1  0  0  0  0 
  2  3  1  0  0  0  0 
  4  2  1  0  0  0  0 
  3  5  1  0  0  0  0 
  6  4  2  0  0  0  0 
  5  7  1  0  0  0  0 
  7  6  1  0  0  0  0 
M  END
> <Name>
3-METHYL-1-CYCLOHEXENE

> <Source>
NIST3DMolFile

> <Tox>
1.540

> <CAS>
591-48-0

$$$$

  CDK

  7  7  0  0  0  0  0  0  0  0999 V2000
    0.4443    2.1398    1.1225 C   0  0  0  0  0  0  0  0  0  0  0  0
    1.9262    2.1119    1.2325 C   0  0  0  0  0  0  0  0  0  0  0  0
    2.6027    3.4436    1.2290 C   0  0  0  0  0  0  0  0  0  0  0  0
    2.6060    0.9615    1.3145 C   0  0  0  0  0  0  0  0  0  0  0  0
    4.0355    3.3725    1.7332 C   0  0  0  0  0  0  0  0  0  0  0  0
    4.0852    0.8909    1.4369 C   0  0  0  0  0  0  0  0  0  0  0  0
    4.7711    2.2053    1.0989 C   0  0  0  0  0  0  0  0  0  0  0  0
  1  2  1  0  0  0  0 
  2  3  1  0  0  0  0 
  4  2  2  0  0  0  0 
  3  5  1  0  0  0  0 
  6  4  1  0  0  0  0 
  5  7  1  0  0  0  0 
  7  6  1  0  0  0  0 
M  END
> <Name>
1-METHYLCYCLOHEXENE

> <Source>
NIST3DMolFile

> <Tox>
1.486

> <CAS>
591-49-1

$$$$

  CDK

  7  6  0  0  0  0  0  0  0  0999 V2000
    2.7132    1.2005    0.8177 C   0  0  0  0  0  0  0  0  0  0  0  0
    1.7731    1.9155    1.7914 C   0  0  0  0  0  0  0  0  0  0  0  0
    3.9534    0.6860    1.5343 C   0  0  0  0  0  0  0  0  0  0  0  0
    1.1787    0.9236    2.7778 C   0  0  0  0  0  0  0  0  0  0  0  0
    0.6778    2.6523    1.0431 C   0  0  0  0  0  0  0  0  0  0  0  0
    4.8440    1.8299    1.9943 C   0  0  0  0  0  0  0  0  0  0  0  0
    5.9766    1.3434    2.8675 C   0  0  0  0  0  0  0  0  0  0  0  0
  1  2  1  0  0  0  0 
  1  3  1  0  0  0  0 
  2  4  1  0  0  0  0 
  2  5  1  0  0  0  0 
  3  6  1  0  0  0  0 
  6  7  1  0  0  0  0 
M  END
> <Name>
2-METHYLHEXANE

> <Source>
NIST3DMolFile

> <Tox>
1.820

> <CAS>
591-76-4

$$$$

  CDK

  7  6  0  0  0  0  0  0  0  0999 V2000
    0.0000   -1.3314    0.0000 C   0  0  0  0  0  0  0  0  0  0  0  0
    1.1527   -1.9942    0.0000 C   0  0  0  0  0  0  0  0  0  0  0  0
    2.3055   -1.3314    0.0000 C   0  0  0  0  0  0  0  0  0  0  0  0
    3.4582   -1.9942    0.0000 C   0  0  0  0  0  0  0  0  0  0  0  0
    4.6110   -1.3314    0.0000 C   0  0  0  0  0  0  0  0  0  0  0  0
    4.6110   -0.0000    0.0000 O   0  0  0  0  0  0  0  0  0  0  0  0
    5.7637   -1.9942    0.0000 C   0  0  0  0  0  0  0  0  0  0  0  0
  1  2  1  0  0  0  0 
  2  3  1  0  0  0  0 
  3  4  1  0  0  0  0 
  4  5  1  0  0  0  0 
  5  6  2  0  0  0  0 
  5  7  1  0  0  0  0 
M  END
> <Name>
2-HEXANONE

> <Source>
DSSTox2DMolFile

> <Tox>
1.064

> <CAS>
591-78-6

$$$$

  CDK

  5  4  0  0  0  0  0  0  0  0999 V2000
    0.8378    2.0105    1.0282 C   0  0  0  0  0  0  0  0  0  0  0  0
    1.1963    3.4695    1.1949 C   0  0  0  0  0  0  0  0  0  0  0  0
    1.9576    1.0662    1.2900 C   0  0  0  0  0  0  0  0  0  0  0  0
    3.1535    1.4179    1.6700 C   0  0  0  0  0  0  0  0  0  0  0  0
    4.3465    1.7487    2.0532 C   0  0  0  0  0  0  0  0  0  0  0  0
  1  2  1  0  0  0  0 
  1  3  1  0  0  0  0 
  3  4  2  0  0  0  0 
  4  5  2  0  0  0  0 
M  END
> <Name>
1,2-PENTADIENE

> <Source>
NIST3DMolFile

> <Tox>
2.566

> <CAS>
591-95-7

$$$$

  CDK

  8  7  0  0  0  0  0  0  0  0999 V2000
    5.1366    2.4257    1.8558 C   0  0  0  0  0  0  0  0  0  0  0  0
    4.0753    1.3733    2.1371 C   0  0  0  0  0  0  0  0  0  0  0  0
    6.3531    1.8189    1.1542 C   0  0  0  0  0  0  0  0  0  0  0  0
    2.9495    1.9300    2.9910 C   0  0  0  0  0  0  0  0  0  0  0  0
    7.3084    2.9127    0.7086 C   0  0  0  0  0  0  0  0  0  0  0  0
    7.0613    0.8336    2.0705 C   0  0  0  0  0  0  0  0  0  0  0  0
    1.8859    0.8776    3.2611 C   0  0  0  0  0  0  0  0  0  0  0  0
    0.7643    1.4294    4.1117 C   0  0  0  0  0  0  0  0  0  0  0  0
  1  2  1  0  0  0  0 
  1  3  1  0  0  0  0 
  2  4  1  0  0  0  0 
  3  5  1  0  0  0  0 
  3  6  1  0  0  0  0 
  4  7  1  0  0  0  0 
  7  8  1  0  0  0  0 
M  END
> <Name>
2-METHYLHEPTANE

> <Source>
NIST3DMolFile

> <Tox>
1.316

> <CAS>
592-27-8

$$$$

  CDK

  8  7  0  0  0  0  0  0  0  0999 V2000
    0.0000    0.0000    0.0000 C   0  0  0  0  0  0  0  0  0  0  0  0
    0.8464    0.5477    0.0000 C   0  0  0  0  0  0  0  0  0  0  0  0
    1.6927    0.0498    0.0000 C   0  0  0  0  0  0  0  0  0  0  0  0
    2.5889    0.5477    0.0000 C   0  0  0  0  0  0  0  0  0  0  0  0
    3.4353    0.0498    0.0000 O   0  0  0  0  0  0  0  0  0  0  0  0
    4.2816    0.5477    0.0000 C   0  0  0  0  0  0  0  0  0  0  0  0
    5.1778    0.0498    0.0000 Cl  0  0  0  0  0  0  0  0  0  0  0  0
    4.2816    1.5434    0.0000 O   0  0  0  0  0  0  0  0  0  0  0  0
  1  2  1  0  0  0  0 
  2  3  1  0  0  0  0 
  3  4  1  0  0  0  0 
  4  5  1  0  0  0  0 
  5  6  1  0  0  0  0 
  6  7  1  0  0  0  0 
  6  8  2  0  0  0  0 
M  END
> <Name>
Carbonochloridic acid, butyl ester

> <Source>
NIST2DMolFile

> <Tox>
0.816

> <CAS>
592-34-7

$$$$

  CDK

  6  5  0  0  0  0  0  0  0  0999 V2000
    2.3060   -0.6630    0.0000 C   0  0  0  0  0  0  0  0  0  0  0  0
    1.1530   -0.0000    0.0000 C   0  0  0  0  0  0  0  0  0  0  0  0
    3.4590   -0.0000    0.0000 C   0  0  0  0  0  0  0  0  0  0  0  0
    0.0000   -0.6630    0.0000 C   0  0  0  0  0  0  0  0  0  0  0  0
    4.6119   -0.6630    0.0000 C   0  0  0  0  0  0  0  0  0  0  0  0
    5.7649   -0.0000    0.0000 C   0  0  0  0  0  0  0  0  0  0  0  0
  1  2  1  0  0  0  0 
  1  3  1  0  0  0  0 
  2  4  1  0  0  0  0 
  3  5  1  0  0  0  0 
  5  6  2  0  0  0  0 
M  END
> <Name>
1-HEXENE

> <Source>
DSSTox2DMolFile

> <Tox>
2.265

> <CAS>
592-41-6

$$$$

  CDK

  6  5  0  0  0  0  0  0  0  0999 V2000
    2.1497    0.6782    3.3931 C   0  0  0  0  0  0  0  0  0  0  0  0
    1.2840    1.8615    3.6496 C   0  0  0  0  0  0  0  0  0  0  0  0
    3.5008    1.0814    2.8163 C   0  0  0  0  0  0  0  0  0  0  0  0
    0.6380    2.0560    4.7929 C   0  0  0  0  0  0  0  0  0  0  0  0
    3.3876    1.6107    1.4296 C   0  0  0  0  0  0  0  0  0  0  0  0
    4.0082    2.7103    1.0187 C   0  0  0  0  0  0  0  0  0  0  0  0
  1  2  1  0  0  0  0 
  1  3  1  0  0  0  0 
  2  4  2  0  0  0  0 
  3  5  1  0  0  0  0 
  5  6  2  0  0  0  0 
M  END
> <Name>
1,5-HEXADIENE

> <Source>
NIST3DMolFile

> <Tox>
2.344

> <CAS>
592-42-7

$$$$

  CDK

  6  5  0  0  0  0  0  0  0  0999 V2000
    3.3989    2.2222    1.9080 C   0  0  0  0  0  0  0  0  0  0  0  0
    2.0601    2.7791    1.5745 C   0  0  0  0  0  0  0  0  0  0  0  0
    4.5361    2.8746    1.6623 C   0  0  0  0  0  0  0  0  0  0  0  0
    1.1937    1.7763    0.8235 C   0  0  0  0  0  0  0  0  0  0  0  0
    5.8687    2.3317    2.0067 C   0  0  0  0  0  0  0  0  0  0  0  0
    0.6355    0.6961    1.7231 C   0  0  0  0  0  0  0  0  0  0  0  0
  1  2  1  0  0  0  0 
  1  3  2  0  0  0  0 
  2  4  1  0  0  0  0 
  3  5  1  0  0  0  0 
  4  6  1  0  0  0  0 
M  END
> <Name>
2-HEXENE

> <Source>
NIST3DMolFile

> <Tox>
2.176

> <CAS>
592-43-8

$$$$

  CDK

  6  5  0  0  0  0  0  0  0  0999 V2000
    0.0000    0.0000    0.0000 C   0  0  0  0  0  0  0  0  0  0  0  0
    0.9309    0.4137    0.0000 C   0  0  0  0  0  0  0  0  0  0  0  0
    1.8618    0.0000    0.0000 C   0  0  0  0  0  0  0  0  0  0  0  0
    2.6894    0.4137    0.0000 C   0  0  0  0  0  0  0  0  0  0  0  0
    3.6203    0.0000    0.0000 C   0  0  0  0  0  0  0  0  0  0  0  0
    4.5512    0.4137    0.0000 C   0  0  0  0  0  0  0  0  0  0  0  0
  1  2  1  0  0  0  0 
  2  3  1  0  0  0  0 
  3  4  2  0  0  0  0 
  4  5  1  0  0  0  0 
  5  6  1  0  0  0  0 
M  END
> <Name>
3-HEXENE

> <Source>
NIST2DMolFile

> <Tox>
2.217

> <CAS>
592-47-2

$$$$

  CDK

  6  5  0  0  0  0  0  0  0  0999 V2000
    1.0781    1.2180    1.0686 C   0  0  0  0  0  0  0  0  0  0  0  0
    1.9184    2.2512    1.0234 C   0  0  0  0  0  0  0  0  0  0  0  0
    3.3654    2.1005    0.9742 C   0  0  0  0  0  0  0  0  0  0  0  0
    3.9633    0.9035    0.9595 C   0  0  0  0  0  0  0  0  0  0  0  0
    5.4253    0.6547    0.9078 C   0  0  0  0  0  0  0  0  0  0  0  0
    6.3030    1.8854    0.9156 C   0  0  0  0  0  0  0  0  0  0  0  0
  1  2  2  0  0  0  0 
  2  3  1  0  0  0  0 
  3  4  2  0  0  0  0 
  4  5  1  0  0  0  0 
  5  6  1  0  0  0  0 
M  END
> <Name>
1,3-HEXADIENE

> <Source>
NIST3DMolFile

> <Tox>
2.111

> <CAS>
592-48-3

$$$$

  CDK

  6  5  0  0  0  0  0  0  0  0999 V2000
    0.0000    0.0000    0.0000 C   0  0  0  0  0  0  0  0  0  0  0  0
    0.8543    0.5025    0.0000 C   0  0  0  0  0  0  0  0  0  0  0  0
    1.7589    0.0000    0.0000 C   0  0  0  0  0  0  0  0  0  0  0  0
    2.6132    0.5025    0.0000 C   0  0  0  0  0  0  0  0  0  0  0  0
    3.4172    0.0000    0.0000 C   0  0  0  0  0  0  0  0  0  0  0  0
    4.3218    0.5025    0.0000 F   0  0  0  0  0  0  0  0  0  0  0  0
  1  2  1  0  0  0  0 
  2  3  1  0  0  0  0 
  3  4  1  0  0  0  0 
  4  5  1  0  0  0  0 
  5  6  1  0  0  0  0 
M  END
> <Name>
1-FLUOROPENTANE

> <Source>
NIST2DMolFile

> <Tox>
2.265

> <CAS>
592-50-7

$$$$

  CDK

  6  6  0  0  0  0  0  0  0  0999 V2000
    2.8678    1.6842    3.3723 C   0  0  0  0  0  0  0  0  0  0  0  0
    3.7601    1.8000    2.1421 C   0  0  0  0  0  0  0  0  0  0  0  0
    1.4379    1.4264    3.0571 C   0  0  0  0  0  0  0  0  0  0  0  0
    3.2998    0.9865    0.9857 C   0  0  0  0  0  0  0  0  0  0  0  0
    1.0520    0.8986    1.8885 C   0  0  0  0  0  0  0  0  0  0  0  0
    2.0302    0.5784    0.8651 C   0  0  0  0  0  0  0  0  0  0  0  0
  1  2  1  0  0  0  0 
  3  1  1  0  0  0  0 
  2  4  1  0  0  0  0 
  5  3  2  0  0  0  0 
  4  6  2  0  0  0  0 
  6  5  1  0  0  0  0 
M  END
> <Name>
1,3-CYCLOHEXADIENE

> <Source>
NIST3DMolFile

> <Tox>
1.988

> <CAS>
592-57-4

$$$$

  CDK

  7  6  0  0  0  0  0  0  0  0999 V2000
    3.3507    0.7358    1.4328 C   0  0  0  0  0  0  0  0  0  0  0  0
    4.5516    1.6172    1.7350 C   0  0  0  0  0  0  0  0  0  0  0  0
    2.0981    1.5657    1.2014 C   0  0  0  0  0  0  0  0  0  0  0  0
    5.8050    0.7833    1.9572 C   0  0  0  0  0  0  0  0  0  0  0  0
    0.9023    0.6912    0.9002 C   0  0  0  0  0  0  0  0  0  0  0  0
    6.9701    1.6461    2.2935 C   0  0  0  0  0  0  0  0  0  0  0  0
    8.1457    1.5501    1.6841 C   0  0  0  0  0  0  0  0  0  0  0  0
  1  2  1  0  0  0  0 
  1  3  1  0  0  0  0 
  2  4  1  0  0  0  0 
  3  5  1  0  0  0  0 
  4  6  1  0  0  0  0 
  6  7  2  0  0  0  0 
M  END
> <Name>
1-HEPTENE

> <Source>
NIST3DMolFile

> <Tox>
1.773

> <CAS>
592-76-7

$$$$

  CDK

  7  6  0  0  0  0  0  0  0  0999 V2000
    1.1724    0.2140    0.2073 C   0  0  0  0  0  0  0  0  0  0  0  0
    2.5198   -0.3787   -0.2125 C   0  0  0  0  0  0  0  0  0  0  0  0
    0.0073   -0.7667    0.0424 C   0  0  0  0  0  0  0  0  0  0  0  0
    3.6453    0.6306   -0.0450 C   0  0  0  0  0  0  0  0  0  0  0  0
   -1.3166   -0.1756    0.4329 C   0  0  0  0  0  0  0  0  0  0  0  0
   -2.3553   -0.0540   -0.4064 C   0  0  0  0  0  0  0  0  0  0  0  0
   -3.6729    0.5305   -0.0187 C   0  0  0  0  0  0  0  0  0  0  0  0
  1  2  1  0  0  0  0 
  1  3  1  0  0  0  0 
  2  4  1  0  0  0  0 
  3  5  1  0  0  0  0 
  5  6  2  0  0  0  0 
  6  7  1  0  0  0  0 
M  END
> <Name>
2-Heptene

> <Source>
Chemidplus3DMolFile

> <Tox>
1.685

> <CAS>
592-77-8

$$$$

  CDK

  7  6  0  0  0  0  0  0  0  0999 V2000
    1.7489    0.4997    0.0000 C   0  0  0  0  0  0  0  0  0  0  0  0
    2.5984    0.0000    0.0000 C   0  0  0  0  0  0  0  0  0  0  0  0
    0.8495    0.0000    0.0000 C   0  0  0  0  0  0  0  0  0  0  0  0
    3.4478    0.4997    0.0000 O   0  0  0  0  0  0  0  0  0  0  0  0
    0.0000    0.4997    0.0000 C   0  0  0  0  0  0  0  0  0  0  0  0
    4.3473    0.0000    0.0000 C   0  0  0  0  0  0  0  0  0  0  0  0
    5.1968    0.4997    0.0000 O   0  0  0  0  0  0  0  0  0  0  0  0
  1  2  1  0  0  0  0 
  1  3  1  0  0  0  0 
  2  4  1  0  0  0  0 
  3  5  1  0  0  0  0 
  4  6  1  0  0  0  0 
  6  7  2  0  0  0  0 
M  END
> <Name>
N-BUTYLFORMATE

> <Source>
NIST2DMolFile

> <Tox>
1.461

> <CAS>
592-84-7

$$$$

  CDK

  7  6  0  0  0  0  0  0  0  0999 V2000
    3.4613    0.5016    0.0000 C   0  0  0  0  0  0  0  0  0  0  0  0
    2.6085    0.0000    0.0000 S   0  0  0  0  0  0  0  0  0  0  0  0
    4.3642    0.0502    0.0000 C   0  0  0  0  0  0  0  0  0  0  0  0
    1.7557    0.5016    0.0000 C   0  0  0  0  0  0  0  0  0  0  0  0
    5.2170    0.5518    0.0000 C   0  0  0  0  0  0  0  0  0  0  0  0
    0.8528    0.0000    0.0000 C   0  0  0  0  0  0  0  0  0  0  0  0
    0.0000    0.5016    0.0000 C   0  0  0  0  0  0  0  0  0  0  0  0
  1  2  1  0  0  0  0 
  1  3  1  0  0  0  0 
  2  4  1  0  0  0  0 
  3  5  2  0  0  0  0 
  4  6  1  0  0  0  0 
  6  7  2  0  0  0  0 
M  END
> <Name>
DIALLYL SULFIDE

> <Source>
NIST2DMolFile

> <Tox>
0.965

> <CAS>
592-88-1

$$$$

  CDK

  8  7  0  0  0  0  0  0  0  0999 V2000
    0.0000    0.0000    0.0000 C   0  0  0  0  0  0  0  0  0  0  0  0
    0.8635    0.5069    0.0000 C   0  0  0  0  0  0  0  0  0  0  0  0
    1.7268    0.0056    0.0000 C   0  0  0  0  0  0  0  0  0  0  0  0
    2.5902    0.5124    0.0000 C   0  0  0  0  0  0  0  0  0  0  0  0
    3.4537    0.0111    0.0000 C   0  0  0  0  0  0  0  0  0  0  0  0
    4.3171    0.5180    0.0000 C   0  0  0  0  0  0  0  0  0  0  0  0
    5.1804    0.0167    0.0000 C   0  0  0  0  0  0  0  0  0  0  0  0
    6.0439    0.5236    0.0000 C   0  0  0  0  0  0  0  0  0  0  0  0
  1  2  1  0  0  0  0 
  2  3  1  0  0  0  0 
  3  4  1  0  0  0  0 
  4  5  2  0  0  0  0 
  5  6  1  0  0  0  0 
  6  7  1  0  0  0  0 
  7  8  1  0  0  0  0 
M  END
> <Name>
4-OCTENE

> <Source>
NIST2DMolFile

> <Tox>
1.250

> <CAS>
592-99-4

$$$$

  CDK

 14 13  0  0  0  0  0  0  0  0999 V2000
    0.0000   -1.9918    0.0000 C   0  0  0  0  0  0  0  0  0  0  0  0
    1.1480   -1.3278    0.0000 C   0  0  0  0  0  0  0  0  0  0  0  0
    2.3099   -1.9918    0.0000 C   0  0  0  0  0  0  0  0  0  0  0  0
    3.4579   -1.3278    0.0000 C   0  0  0  0  0  0  0  0  0  0  0  0
    4.6059   -1.9918    0.0000 C   0  0  0  0  0  0  0  0  0  0  0  0
    5.7678   -1.3278    0.0000 C   0  0  0  0  0  0  0  0  0  0  0  0
    6.9158   -1.9918    0.0000 C   0  0  0  0  0  0  0  0  0  0  0  0
    8.0639   -1.3278    0.0000 C   0  0  0  0  0  0  0  0  0  0  0  0
    9.2257   -1.9918    0.0000 C   0  0  0  0  0  0  0  0  0  0  0  0
   10.3738   -1.3278    0.0000 C   0  0  0  0  0  0  0  0  0  0  0  0
   11.5218   -1.9918    0.0000 C   0  0  0  0  0  0  0  0  0  0  0  0
   12.6836   -1.3278    0.0000 C   0  0  0  0  0  0  0  0  0  0  0  0
   12.6836   -0.0000    0.0000 O   0  0  0  0  0  0  0  0  0  0  0  0
   13.8317   -1.9918    0.0000 C   0  0  0  0  0  0  0  0  0  0  0  0
  1  2  1  0  0  0  0 
  2  3  1  0  0  0  0 
  3  4  1  0  0  0  0 
  4  5  1  0  0  0  0 
  5  6  1  0  0  0  0 
  6  7  1  0  0  0  0 
  7  8  1  0  0  0  0 
  8  9  1  0  0  0  0 
  9 10  1  0  0  0  0 
 10 11  1  0  0  0  0 
 11 12  1  0  0  0  0 
 12 13  2  0  0  0  0 
 12 14  1  0  0  0  0 
M  END
> <Name>
2-TRIDECANONE

> <Source>
DSSTox2DMolFile

> <Tox>
-1.983

> <CAS>
593-08-8

$$$$

  CDK

 18 17  0  0  0  0  0  0  0  0999 V2000
    7.8534    2.3037    2.1013 C   0  0  0  0  0  0  0  0  0  0  0  0
    7.0273    2.5073    3.3605 C   0  0  0  0  0  0  0  0  0  0  0  0
    9.0639    1.4210    2.3535 C   0  0  0  0  0  0  0  0  0  0  0  0
    5.7429    3.2681    3.0673 C   0  0  0  0  0  0  0  0  0  0  0  0
   10.0093    1.4185    1.1600 C   0  0  0  0  0  0  0  0  0  0  0  0
    4.8151    2.4697    2.1665 C   0  0  0  0  0  0  0  0  0  0  0  0
   10.6559    2.7833    0.9682 C   0  0  0  0  0  0  0  0  0  0  0  0
    3.6187    3.2901    1.7151 C   0  0  0  0  0  0  0  0  0  0  0  0
   11.6049    3.1157    2.1094 C   0  0  0  0  0  0  0  0  0  0  0  0
    2.5983    2.4276    0.9852 C   0  0  0  0  0  0  0  0  0  0  0  0
   12.0324    4.5761    2.1271 C   0  0  0  0  0  0  0  0  0  0  0  0
    1.9531    1.4239    1.9286 C   0  0  0  0  0  0  0  0  0  0  0  0
   11.0223    5.5043    2.7906 C   0  0  0  0  0  0  0  0  0  0  0  0
    1.0799    2.1098    2.9696 C   0  0  0  0  0  0  0  0  0  0  0  0
    9.9776    6.0367    1.8218 C   0  0  0  0  0  0  0  0  0  0  0  0
    0.7404    1.1767    4.1213 C   0  0  0  0  0  0  0  0  0  0  0  0
    8.9397    6.8765    2.5309 C   0  0  0  0  0  0  0  0  0  0  0  0
    1.9733    0.7916    4.9098 C   0  0  0  0  0  0  0  0  0  0  0  0
  1  2  1  0  0  0  0 
  1  3  1  0  0  0  0 
  2  4  1  0  0  0  0 
  3  5  1  0  0  0  0 
  4  6  1  0  0  0  0 
  5  7  1  0  0  0  0 
  6  8  1  0  0  0  0 
  7  9  1  0  0  0  0 
  8 10  1  0  0  0  0 
  9 11  1  0  0  0  0 
 10 12  1  0  0  0  0 
 11 13  1  0  0  0  0 
 12 14  1  0  0  0  0 
 13 15  1  0  0  0  0 
 14 16  1  0  0  0  0 
 15 17  1  0  0  0  0 
 16 18  1  0  0  0  0 
M  END
> <Name>
OCTADECANE

> <Source>
NIST3DMolFile

> <Tox>
-3.467

> <CAS>
593-45-3

$$$$

  CDK

  2  1  0  0  0  0  0  0  0  0999 V2000
    0.0000    1.6096    0.3649 F   0  0  0  0  0  0  0  0  0  0  0  0
    1.1467    1.0425    0.7987 C   0  0  0  0  0  0  0  0  0  0  0  0
  1  2  1  0  0  0  0 
M  END
> <Name>
FLUOROMETHANE

> <Source>
NIST3DMolFile

> <Tox>
3.455

> <CAS>
593-53-3

$$$$

  CDK

  3  2  0  0  0  0  0  0  0  0999 V2000
    2.3030   -0.6656    0.0000 F   0  0  0  0  0  0  0  0  0  0  0  0
    1.1515   -0.0000    0.0000 C   0  0  0  0  0  0  0  0  0  0  0  0
    0.0000   -0.6656    0.0000 Cl  0  0  0  0  0  0  0  0  0  0  0  0
  1  2  1  0  0  0  0 
  2  3  1  0  0  0  0 
M  END
> <Name>
CHLOROFLUOROMETHANE

> <Source>
DSSTox2DMolFile

> <Tox>
3.389

> <CAS>
593-70-4

$$$$

  CDK

  3  2  0  0  0  0  0  0  0  0999 V2000
   -1.1563    0.2934    0.0000 O   0  0  0  0  0  0  0  0  0  0  0  0
   -0.0014   -0.5858    0.0000 N   0  0  0  0  0  0  0  0  0  0  0  0
    1.1577    0.2923    0.0000 C   0  0  0  0  0  0  0  0  0  0  0  0
  1  2  1  0  0  0  0 
  2  3  1  0  0  0  0 
M  END
> <Name>
N-METHYLHYDROXYLAMINE

> <Source>
Chemidplus3DMolFile

> <Tox>
0.223

> <CAS>
593-77-1

$$$$

  CDK

  4  3  0  0  0  0  0  0  0  0999 V2000
    1.0004    1.3816    0.0000 C   0  0  0  0  0  0  0  0  0  0  0  0
    1.0004    0.4288    0.0000 C   0  0  0  0  0  0  0  0  0  0  0  0
    0.0000    0.0000    0.0000 Cl  0  0  0  0  0  0  0  0  0  0  0  0
    1.8580    0.0000    0.0000 Br  0  0  0  0  0  0  0  0  0  0  0  0
  1  2  1  0  0  0  0 
  2  3  1  0  0  0  0 
  2  4  1  0  0  0  0 
M  END
> <Name>
1-BROMO-1-CHLOROETHANE

> <Source>
NIST2DMolFile

> <Tox>
1.930

> <CAS>
593-96-4

$$$$

  CDK

  4  4  0  0  0  0  0  0  0  0999 V2000
    1.9544    1.4794    1.7198 C   0  0  0  0  0  0  0  0  0  0  0  0
    3.1008    2.1231    0.9893 C   0  0  0  0  0  0  0  0  0  0  0  0
    3.0591    0.6346    1.1469 C   0  0  0  0  0  0  0  0  0  0  0  0
    0.5974    1.4513    1.0906 C   0  0  0  0  0  0  0  0  0  0  0  0
  1  2  1  0  0  0  0 
  3  1  1  0  0  0  0 
  1  4  1  0  0  0  0 
  2  3  1  0  0  0  0 
M  END
> <Name>
METHYLCYCLOPROPANE

> <Source>
NIST3DMolFile

> <Tox>
3.199

> <CAS>
594-11-6

$$$$

  CDK

  6  5  0  0  0  0  0  0  0  0999 V2000
    2.0765    0.9623    0.0000 C   0  0  0  0  0  0  0  0  0  0  0  0
    1.0129    0.9623    0.0000 C   0  0  0  0  0  0  0  0  0  0  0  0
    2.5830    1.8233    0.0000 Br  0  0  0  0  0  0  0  0  0  0  0  0
    1.0129    0.0000    0.0000 Br  0  0  0  0  0  0  0  0  0  0  0  0
    1.0129    1.9246    0.0000 C   0  0  0  0  0  0  0  0  0  0  0  0
    0.0000    0.9623    0.0000 C   0  0  0  0  0  0  0  0  0  0  0  0
  1  2  1  0  0  0  0 
  1  3  1  0  0  0  0 
  2  4  1  0  0  0  0 
  2  5  1  0  0  0  0 
  2  6  1  0  0  0  0 
M  END
> <Name>
1,2-DIBROMO-2-METHYLPROPANE

> <Source>
NIST2DMolFile

> <Tox>
1.290

> <CAS>
594-34-3

$$$$

  CDK

  6  5  0  0  0  0  0  0  0  0999 V2000
    0.5014    1.0028    0.0000 C   0  0  0  0  0  0  0  0  0  0  0  0
    1.5543    1.0028    0.0000 C   0  0  0  0  0  0  0  0  0  0  0  0
    0.0000    1.8551    0.0000 Cl  0  0  0  0  0  0  0  0  0  0  0  0
    1.5543    0.0000    0.0000 C   0  0  0  0  0  0  0  0  0  0  0  0
    1.5543    1.9554    0.0000 C   0  0  0  0  0  0  0  0  0  0  0  0
    2.5571    1.0028    0.0000 Cl  0  0  0  0  0  0  0  0  0  0  0  0
  1  2  1  0  0  0  0 
  1  3  1  0  0  0  0 
  2  4  1  0  0  0  0 
  2  5  1  0  0  0  0 
  2  6  1  0  0  0  0 
M  END
> <Name>
1,2-DICHLORO-2-METHYLPROPANE

> <Source>
NIST2DMolFile

> <Tox>
1.449

> <CAS>
594-37-6

$$$$

  CDK

  7  6  0  0  0  0  0  0  0  0999 V2000
    3.2810    2.2789    2.0607 C   0  0  0  0  0  0  0  0  0  0  0  0
    1.7861    2.1717    1.8295 C   0  0  0  0  0  0  0  0  0  0  0  0
    3.7131    3.4928    2.8122 C   0  0  0  0  0  0  0  0  0  0  0  0
    4.1741    1.3826    1.6439 C   0  0  0  0  0  0  0  0  0  0  0  0
    1.3322    3.3981    1.0314 C   0  0  0  0  0  0  0  0  0  0  0  0
    1.3837    0.9166    1.0572 C   0  0  0  0  0  0  0  0  0  0  0  0
    1.0872    2.1471    3.1925 C   0  0  0  0  0  0  0  0  0  0  0  0
  1  2  1  0  0  0  0 
  1  3  1  0  0  0  0 
  1  4  2  0  0  0  0 
  2  5  1  0  0  0  0 
  2  6  1  0  0  0  0 
  2  7  1  0  0  0  0 
M  END
> <Name>
2,3,3-TRIMETHYL-1-BUTENE

> <Source>
NIST3DMolFile

> <Tox>
2.049

> <CAS>
594-56-9

$$$$

  CDK

  7  6  0  0  0  0  0  0  0  0999 V2000
    0.4987    0.9974    0.0000 C   0  0  0  0  0  0  0  0  0  0  0  0
    1.4961    0.9974    0.0000 C   0  0  0  0  0  0  0  0  0  0  0  0
    0.0000    1.8950    0.0000 C   0  0  0  0  0  0  0  0  0  0  0  0
    0.0000    0.1496    0.0000 C   0  0  0  0  0  0  0  0  0  0  0  0
    1.4961    1.9948    0.0000 C   0  0  0  0  0  0  0  0  0  0  0  0
    1.4961    0.0000    0.0000 C   0  0  0  0  0  0  0  0  0  0  0  0
    2.4935    0.9974    0.0000 O   0  0  0  0  0  0  0  0  0  0  0  0
  1  2  1  0  0  0  0 
  1  3  1  0  0  0  0 
  1  4  1  0  0  0  0 
  2  5  1  0  0  0  0 
  2  6  1  0  0  0  0 
  2  7  1  0  0  0  0 
M  END
> <Name>
2,3-DIMETHYL-2-BUTANOL

> <Source>
NIST2DMolFile

> <Tox>
0.505

> <CAS>
594-60-5

$$$$

  CDK

  7  6  0  0  0  0  0  0  0  0999 V2000
    2.3075   -1.3284    0.0000 C   0  0  0  0  0  0  0  0  0  0  0  0
    2.3075   -0.0000    0.0000 O   0  0  0  0  0  0  0  0  0  0  0  0
    3.4595   -1.9857    0.0000 O   0  0  0  0  0  0  0  0  0  0  0  0
    1.1520   -1.9857    0.0000 C   0  0  0  0  0  0  0  0  0  0  0  0
    0.4982   -0.8303    0.0000 C   0  0  0  0  0  0  0  0  0  0  0  0
    1.8266   -3.1378    0.0000 C   0  0  0  0  0  0  0  0  0  0  0  0
    0.0000   -2.6569    0.0000 O   0  0  0  0  0  0  0  0  0  0  0  0
  1  2  2  0  0  0  0 
  1  3  1  0  0  0  0 
  1  4  1  0  0  0  0 
  4  5  1  0  0  0  0 
  4  6  1  0  0  0  0 
  4  7  1  0  0  0  0 
M  END
> <Name>
A-HYDROXY-I-BUTYRIC ACID

> <Source>
DSSTox2DMolFile

> <Tox>
-2.058

> <CAS>
594-61-6

$$$$

  CDK

  7  6  0  0  0  0  0  0  0  0999 V2000
    2.0507    1.0003    0.0000 N   0  0  0  0  0  0  0  0  0  0  0  0
    1.0003    1.0003    0.0000 C   0  0  0  0  0  0  0  0  0  0  0  0
    2.5509    0.1501    0.0000 O   0  0  0  0  0  0  0  0  0  0  0  0
    2.5009    1.8506    0.0000 O   0  0  0  0  0  0  0  0  0  0  0  0
    1.0003    0.0000    0.0000 C   0  0  0  0  0  0  0  0  0  0  0  0
    1.0003    2.0007    0.0000 C   0  0  0  0  0  0  0  0  0  0  0  0
    0.0000    1.0003    0.0000 C   0  0  0  0  0  0  0  0  0  0  0  0
  1  2  1  0  0  0  0 
  1  3  2  0  0  0  0 
  1  4  2  0  0  0  0 
  2  5  1  0  0  0  0 
  2  6  1  0  0  0  0 
  2  7  1  0  0  0  0 
M  END
> <Name>
2-METHYL-2-NITROPROPANE

> <Source>
NIST2DMolFile

> <Tox>
1.079

> <CAS>
594-70-7

$$$$

  CDK

  8  7  0  0  0  0  0  0  0  0999 V2000
    2.1066    2.2340    1.6978 C   0  0  0  0  0  0  0  0  0  0  0  0
    3.5004    2.1726    2.4066 C   0  0  0  0  0  0  0  0  0  0  0  0
    1.9931    3.5296    0.8944 C   0  0  0  0  0  0  0  0  0  0  0  0
    1.9549    1.0414    0.7536 C   0  0  0  0  0  0  0  0  0  0  0  0
    0.9933    2.1920    2.7445 C   0  0  0  0  0  0  0  0  0  0  0  0
    3.6136    0.8776    3.2109 C   0  0  0  0  0  0  0  0  0  0  0  0
    3.6526    3.3657    3.3501 C   0  0  0  0  0  0  0  0  0  0  0  0
    4.6137    2.2137    1.3598 C   0  0  0  0  0  0  0  0  0  0  0  0
  1  2  1  0  0  0  0 
  1  3  1  0  0  0  0 
  1  4  1  0  0  0  0 
  1  5  1  0  0  0  0 
  2  6  1  0  0  0  0 
  2  7  1  0  0  0  0 
  2  8  1  0  0  0  0 
M  END
> <Name>
2,2,3,3-TETRAMETHYLBUTANE

> <Source>
NIST3DMolFile

> <Tox>
1.320

> <CAS>
594-82-1

$$$$

  CDK

  8  7  0  0  0  0  0  0  0  0999 V2000
    1.1547   -1.3295    0.0000 C   0  0  0  0  0  0  0  0  0  0  0  0
    2.3093   -1.9873    0.0000 C   0  0  0  0  0  0  0  0  0  0  0  0
    0.0000   -1.9873    0.0000 O   0  0  0  0  0  0  0  0  0  0  0  0
    1.1547   -0.0000    0.0000 O   0  0  0  0  0  0  0  0  0  0  0  0
    3.4456   -2.6589    0.0000 C   0  0  0  0  0  0  0  0  0  0  0  0
    1.6331   -3.1420    0.0000 C   0  0  0  0  0  0  0  0  0  0  0  0
    2.9672   -0.8326    0.0000 C   0  0  0  0  0  0  0  0  0  0  0  0
    4.6002   -1.9873    0.0000 C   0  0  0  0  0  0  0  0  0  0  0  0
  1  2  1  0  0  0  0 
  1  3  1  0  0  0  0 
  1  4  2  0  0  0  0 
  2  5  1  0  0  0  0 
  2  6  1  0  0  0  0 
  2  7  1  0  0  0  0 
  5  8  1  0  0  0  0 
M  END
> <Name>
2,2-DIMETHYL BUTYRIC ACID

> <Source>
DSSTox2DMolFile

> <Tox>
-0.830

> <CAS>
595-37-9

$$$$

  CDK

  9  8  0  0  0  0  0  0  0  0999 V2000
    0.0000    0.4536    0.0000 C   0  0  0  0  0  0  0  0  0  0  0  0
    0.8568    0.9577    0.0000 C   0  0  0  0  0  0  0  0  0  0  0  0
    1.7137    0.4536    0.0000 C   0  0  0  0  0  0  0  0  0  0  0  0
    2.6209    0.9577    0.0000 S   0  0  0  0  0  0  0  0  0  0  0  0
    3.4778    0.4536    0.0000 C   0  0  0  0  0  0  0  0  0  0  0  0
    2.6209    1.9153    0.0000 O   0  0  0  0  0  0  0  0  0  0  0  0
    2.8730    0.0000    0.0000 O   0  0  0  0  0  0  0  0  0  0  0  0
    4.3346    0.9577    0.0000 C   0  0  0  0  0  0  0  0  0  0  0  0
    5.2419    0.4536    0.0000 C   0  0  0  0  0  0  0  0  0  0  0  0
  1  2  1  0  0  0  0 
  2  3  1  0  0  0  0 
  3  4  1  0  0  0  0 
  4  5  1  0  0  0  0 
  4  6  2  0  0  0  0 
  4  7  2  0  0  0  0 
  5  8  1  0  0  0  0 
  8  9  1  0  0  0  0 
M  END
> <Name>
PROPYL SULFONE

> <Source>
NIST2DMolFile

> <Tox>
-2.385

> <CAS>
598-03-8

$$$$

  CDK

  5  4  0  0  0  0  0  0  0  0999 V2000
    3.0502    2.8324    1.4897 C   0  0  0  0  0  0  0  0  0  0  0  0
    2.0720    2.0066    1.2175 C   0  0  0  0  0  0  0  0  0  0  0  0
    4.0182    3.6493    1.7577 C   0  0  0  0  0  0  0  0  0  0  0  0
    2.2983    0.5402    1.1115 C   0  0  0  0  0  0  0  0  0  0  0  0
    0.6829    2.4917    0.9983 C   0  0  0  0  0  0  0  0  0  0  0  0
  1  2  2  0  0  0  0 
  1  3  2  0  0  0  0 
  2  4  1  0  0  0  0 
  2  5  1  0  0  0  0 
M  END
> <Name>
3-METHYL-1,2-BUTADIENE

> <Source>
NIST3DMolFile

> <Tox>
2.629

> <CAS>
598-25-4

$$$$

  CDK

  5  5  0  0  0  0  0  0  0  0999 V2000
    1.0451    1.0717    1.9185 C   0  0  0  0  0  0  0  0  0  0  0  0
    1.9771    1.8881    1.0640 C   0  0  0  0  0  0  0  0  0  0  0  0
    3.4498    1.9205    1.5433 C   0  0  0  0  0  0  0  0  0  0  0  0
    1.8881    3.4202    1.2751 C   0  0  0  0  0  0  0  0  0  0  0  0
    3.3602    3.4473    1.7294 C   0  0  0  0  0  0  0  0  0  0  0  0
  1  2  1  0  0  0  0 
  3  2  1  0  0  0  0 
  2  4  1  0  0  0  0 
  5  3  1  0  0  0  0 
  4  5  1  0  0  0  0 
M  END
> <Name>
METHYLCYCLOBUTANE

> <Source>
NIST3DMolFile

> <Tox>
3.170

> <CAS>
598-61-8

$$$$

  CDK

  6  5  0  0  0  0  0  0  0  0999 V2000
    0.0000    0.9734    0.0000 F   0  0  0  0  0  0  0  0  0  0  0  0
    0.8709    1.4345    0.0000 C   0  0  0  0  0  0  0  0  0  0  0  0
    1.7419    0.9734    0.0000 C   0  0  0  0  0  0  0  0  0  0  0  0
    0.8709    2.4591    0.0000 F   0  0  0  0  0  0  0  0  0  0  0  0
    2.6641    1.4345    0.0000 Br  0  0  0  0  0  0  0  0  0  0  0  0
    1.7419    0.0000    0.0000 F   0  0  0  0  0  0  0  0  0  0  0  0
  1  2  1  0  0  0  0 
  2  3  2  0  0  0  0 
  2  4  1  0  0  0  0 
  3  5  1  0  0  0  0 
  3  6  1  0  0  0  0 
M  END
> <Name>
2-BROMO-1,1,2-TRIFLUOROETHYLENE

> <Source>
NIST2DMolFile

> <Tox>
3.294

> <CAS>
598-73-2

$$$$

  CDK

  6  5  0  0  0  0  0  0  0  0999 V2000
    0.0000   -1.3307    0.0000 Cl  0  0  0  0  0  0  0  0  0  0  0  0
    1.1509   -1.9943    0.0000 C   0  0  0  0  0  0  0  0  0  0  0  0
    1.1509   -3.3250    0.0000 Cl  0  0  0  0  0  0  0  0  0  0  0  0
    2.3053   -1.3307    0.0000 C   0  0  0  0  0  0  0  0  0  0  0  0
    2.3053   -0.0000    0.0000 Cl  0  0  0  0  0  0  0  0  0  0  0  0
    3.4563   -1.9943    0.0000 C   0  0  0  0  0  0  0  0  0  0  0  0
  1  2  1  0  0  0  0 
  3  2  1  0  0  0  0 
  4  2  1  0  0  0  0 
  5  4  1  0  0  0  0 
  6  4  1  0  0  0  0 
M  END
> <Name>
1,1,2-TRICHLOROPROPANE

> <Source>
DSSTox2DMolFile

> <Tox>
0.491

> <CAS>
598-77-6

$$$$

  CDK

  6  5  0  0  0  0  0  0  0  0999 V2000
    0.0000    0.0000    0.0000 C   0  0  0  0  0  0  0  0  0  0  0  0
    1.1400   -0.8800    0.5600 C   0  0  0  0  0  0  0  0  0  0  0  0
    1.8800   -0.2200    1.6800 C   0  0  0  0  0  0  0  0  0  0  0  0
    2.0200   -1.1400   -0.5000 O   0  0  0  0  0  0  0  0  0  0  0  0
    1.3000    0.1000    2.7000 O   0  0  0  0  0  0  0  0  0  0  0  0
    3.1600    0.0000    1.4600 O   0  0  0  0  0  0  0  0  0  0  0  0
  1  2  1  0  0  0  0 
  2  3  1  0  0  0  0 
  2  4  1  0  0  0  0 
  3  5  2  0  0  0  0 
  3  6  1  0  0  0  0 
M  END
> <Name>
A-HYDROXYPROPIONIC ACID

> <Source>
NIH3DMolFile

> <Tox>
-1.089

> <CAS>
598-82-3

$$$$

  CDK

  6  5  0  0  0  0  0  0  0  0999 V2000
    1.5666    0.9096    0.0000 C   0  0  0  0  0  0  0  0  0  0  0  0
    0.5053    0.9096    0.0000 C   0  0  0  0  0  0  0  0  0  0  0  0
    2.0214    1.7182    0.0000 Cl  0  0  0  0  0  0  0  0  0  0  0  0
    2.0214    0.0000    0.0000 F   0  0  0  0  0  0  0  0  0  0  0  0
    0.0000    0.0000    0.0000 Cl  0  0  0  0  0  0  0  0  0  0  0  0
    0.0000    1.7182    0.0000 F   0  0  0  0  0  0  0  0  0  0  0  0
  1  2  2  0  0  0  0 
  1  3  1  0  0  0  0 
  1  4  1  0  0  0  0 
  2  5  1  0  0  0  0 
  2  6  1  0  0  0  0 
M  END
> <Name>
1,2-DICHLORO-1,2-DIFLUOROETHYLENE

> <Source>
NIST2DMolFile

> <Tox>
2.949

> <CAS>
598-88-9

$$$$

  CDK

 16 17  0  0  0  0  0  0  0  0999 V2000
    2.6600   -1.1556    0.0000 C   0  0  0  0  0  0  0  0  0  0  0  0
    3.8155   -1.8169    0.0000 C   0  0  0  0  0  0  0  0  0  0  0  0
    1.9986   -2.3039    0.0000 C   0  0  0  0  0  0  0  0  0  0  0  0
    1.5117   -0.4869    0.0000 C   0  0  0  0  0  0  0  0  0  0  0  0
    3.3286   -0.0000    0.0000 C   0  0  0  0  0  0  0  0  0  0  0  0
    4.9638   -1.1556    0.0000 C   0  0  0  0  0  0  0  0  0  0  0  0
    3.8155   -3.1469    0.0000 C   0  0  0  0  0  0  0  0  0  0  0  0
    2.6600   -3.4594    0.0000 C   0  0  0  0  0  0  0  0  0  0  0  0
    0.6686   -2.3039    0.0000 C   0  0  0  0  0  0  0  0  0  0  0  0
    6.1194   -1.8169    0.0000 C   0  0  0  0  0  0  0  0  0  0  0  0
    4.9638   -3.8155    0.0000 C   0  0  0  0  0  0  0  0  0  0  0  0
    1.9986   -4.6077    0.0000 C   0  0  0  0  0  0  0  0  0  0  0  0
    0.0000   -3.4594    0.0000 C   0  0  0  0  0  0  0  0  0  0  0  0
    6.1194   -3.1469    0.0000 C   0  0  0  0  0  0  0  0  0  0  0  0
    0.6686   -4.6077    0.0000 C   0  0  0  0  0  0  0  0  0  0  0  0
    7.2677   -3.8155    0.0000 O   0  0  0  0  0  0  0  0  0  0  0  0
  1  2  1  0  0  0  0 
  1  3  1  0  0  0  0 
  1  4  1  0  0  0  0 
  1  5  1  0  0  0  0 
  2  6  2  0  0  0  0 
  2  7  1  0  0  0  0 
  3  8  1  0  0  0  0 
  3  9  2  0  0  0  0 
  6 10  1  0  0  0  0 
 11  7  2  0  0  0  0 
  8 12  2  0  0  0  0 
 13  9  1  0  0  0  0 
 10 14  2  0  0  0  0 
 14 11  1  0  0  0  0 
 12 15  1  0  0  0  0 
 15 13  2  0  0  0  0 
 14 16  1  0  0  0  0 
M  END
> <Name>
Phenol, 4-(1-methyl-1-phenylethyl)-

> <Source>
DSSTox2DMolFile

> <Tox>
-4.226

> <CAS>
599-64-4

$$$$

  CDK

  9  8  0  0  0  0  0  0  0  0999 V2000
    1.7021    1.4018    0.0000 C   0  0  0  0  0  0  0  0  0  0  0  0
    0.8511    0.9011    0.0000 C   0  0  0  0  0  0  0  0  0  0  0  0
    2.6033    0.9011    0.0000 O   0  0  0  0  0  0  0  0  0  0  0  0
    1.7021    2.4030    0.0000 O   0  0  0  0  0  0  0  0  0  0  0  0
    0.3504    1.7522    0.0000 Br  0  0  0  0  0  0  0  0  0  0  0  0
    1.3517    0.0000    0.0000 C   0  0  0  0  0  0  0  0  0  0  0  0
    0.0000    0.4005    0.0000 C   0  0  0  0  0  0  0  0  0  0  0  0
    3.4544    1.4018    0.0000 C   0  0  0  0  0  0  0  0  0  0  0  0
    4.3054    0.9011    0.0000 C   0  0  0  0  0  0  0  0  0  0  0  0
  1  2  1  0  0  0  0 
  1  3  1  0  0  0  0 
  1  4  2  0  0  0  0 
  2  5  1  0  0  0  0 
  2  6  1  0  0  0  0 
  2  7  1  0  0  0  0 
  3  8  1  0  0  0  0 
  8  9  1  0  0  0  0 
M  END
> <Name>
ETHYL ALPHA-BROMOISOBUTYRATE

> <Source>
NIST2DMolFile

> <Tox>
0.417

> <CAS>
600-00-0

$$$$

  CDK

  7  6  0  0  0  0  0  0  0  0999 V2000
    0.0000   -2.3106    0.0000 C   0  0  0  0  0  0  0  0  0  0  0  0
    1.3282   -2.3106    0.0000 C   0  0  0  0  0  0  0  0  0  0  0  0
    1.9993   -1.1622    0.0000 N   0  0  0  0  0  0  0  0  0  0  0  0
    1.9993   -3.4590    0.0000 C   0  0  0  0  0  0  0  0  0  0  0  0
    3.3241   -1.1622    0.0000 O   0  0  0  0  0  0  0  0  0  0  0  0
    1.3282   -0.0000    0.0000 O   0  0  0  0  0  0  0  0  0  0  0  0
    3.3241   -3.4590    0.0000 C   0  0  0  0  0  0  0  0  0  0  0  0
  1  2  1  0  0  0  0 
  2  3  1  0  0  0  0 
  2  4  1  0  0  0  0 
  5  3  1  0  0  0  0 
  3  6  2  0  0  0  0 
  4  7  1  0  0  0  0 
M  CHG  1   3   1
M  CHG  1   5  -1
M  END
> <Name>
2-NITROBUTANE

> <Source>
DSSTox2DMolFile

> <Tox>
0.892

> <CAS>
600-24-8

$$$$

  CDK

  8  7  0  0  0  0  0  0  0  0999 V2000
    0.0000   -3.4549    0.0000 C   0  0  0  0  0  0  0  0  0  0  0  0
    1.3313   -3.4549    0.0000 C   0  0  0  0  0  0  0  0  0  0  0  0
    1.9946   -4.6066    0.0000 C   0  0  0  0  0  0  0  0  0  0  0  0
    1.9946   -2.3033    0.0000 C   0  0  0  0  0  0  0  0  0  0  0  0
    3.3259   -2.3033    0.0000 O   0  0  0  0  0  0  0  0  0  0  0  0
    1.3313   -1.1516    0.0000 C   0  0  0  0  0  0  0  0  0  0  0  0
    0.0000   -1.1516    0.0000 C   0  0  0  0  0  0  0  0  0  0  0  0
    1.9946   -0.0000    0.0000 C   0  0  0  0  0  0  0  0  0  0  0  0
  1  2  1  0  0  0  0 
  2  3  1  0  0  0  0 
  2  4  1  0  0  0  0 
  4  5  1  0  0  0  0 
  4  6  1  0  0  0  0 
  6  7  1  0  0  0  0 
  6  8  1  0  0  0  0 
M  END
> <Name>
2,4-DIMETHYL-3-PENTANOL

> <Source>
DSSTox2DMolFile

> <Tox>
0.477

> <CAS>
600-36-2

$$$$

  CDK

 20 23  0  0  0  0  0  0  0  0999 V2000
    3.2212    2.8746    4.5436 C   0  0  0  0  0  0  0  0  0  0  0  0
    4.4161    3.6227    4.3666 C   0  0  0  0  0  0  0  0  0  0  0  0
    2.8886    2.5410    5.8861 C   0  0  0  0  0  0  0  0  0  0  0  0
    2.4192    2.3508    3.4168 C   0  0  0  0  0  0  0  0  0  0  0  0
    5.4467    3.5345    5.3455 C   0  0  0  0  0  0  0  0  0  0  0  0
    4.6447    4.5487    3.2968 C   0  0  0  0  0  0  0  0  0  0  0  0
    3.9096    2.4967    6.8774 C   0  0  0  0  0  0  0  0  0  0  0  0
    1.5485    2.3027    6.3371 C   0  0  0  0  0  0  0  0  0  0  0  0
    1.4603    1.3423    3.6249 C   0  0  0  0  0  0  0  0  0  0  0  0
    2.6568    2.7009    2.0790 C   0  0  0  0  0  0  0  0  0  0  0  0
    5.2093    2.8917    6.5601 C   0  0  0  0  0  0  0  0  0  0  0  0
    6.7284    4.1286    5.1031 C   0  0  0  0  0  0  0  0  0  0  0  0
    5.8486    5.1605    3.1194 C   0  0  0  0  0  0  0  0  0  0  0  0
    3.6087    2.0502    8.2056 C   0  0  0  0  0  0  0  0  0  0  0  0
    1.2773    1.9455    7.6233 C   0  0  0  0  0  0  0  0  0  0  0  0
    0.7451    0.7744    2.5807 C   0  0  0  0  0  0  0  0  0  0  0  0
    1.9462    2.1343    1.0279 C   0  0  0  0  0  0  0  0  0  0  0  0
    6.9317    4.9041    4.0053 C   0  0  0  0  0  0  0  0  0  0  0  0
    2.3272    1.7761    8.5678 C   0  0  0  0  0  0  0  0  0  0  0  0
    0.9724    1.1744    1.2705 C   0  0  0  0  0  0  0  0  0  0  0  0
  1  2  2  0  0  0  0 
  3  1  1  0  0  0  0 
  1  4  1  0  0  0  0 
  5  2  1  0  0  0  0 
  2  6  1  0  0  0  0 
  3  7  2  0  0  0  0 
  8  3  1  0  0  0  0 
  4  9  2  0  0  0  0 
 10  4  1  0  0  0  0 
  5 11  2  0  0  0  0 
 12  5  1  0  0  0  0 
  6 13  2  0  0  0  0 
 11  7  1  0  0  0  0 
  7 14  1  0  0  0  0 
 15  8  2  0  0  0  0 
  9 16  1  0  0  0  0 
 17 10  2  0  0  0  0 
 18 12  2  0  0  0  0 
 13 18  1  0  0  0  0 
 14 19  2  0  0  0  0 
 19 15  1  0  0  0  0 
 16 20  2  0  0  0  0 
 20 17  1  0  0  0  0 
M  END
> <Name>
9-PHENYLANTHRACENE

> <Source>
NIST3DMolFile

> <Tox>
-7.301

> <CAS>
602-55-1

$$$$

  CDK

 19 21  0  0  0  0  0  0  0  0999 V2000
    2.6025    3.0029    0.0000 As  0  0  0  0  0  0  0  0  0  0  0  0
    2.6025    2.0019    0.0000 C   0  0  0  0  0  0  0  0  0  0  0  0
    1.7517    3.5034    0.0000 C   0  0  0  0  0  0  0  0  0  0  0  0
    3.4533    3.5034    0.0000 C   0  0  0  0  0  0  0  0  0  0  0  0
    1.7517    1.5014    0.0000 C   0  0  0  0  0  0  0  0  0  0  0  0
    3.4533    1.5014    0.0000 C   0  0  0  0  0  0  0  0  0  0  0  0
    0.8508    3.0029    0.0000 C   0  0  0  0  0  0  0  0  0  0  0  0
    1.7517    4.5043    0.0000 C   0  0  0  0  0  0  0  0  0  0  0  0
    4.3542    3.0029    0.0000 C   0  0  0  0  0  0  0  0  0  0  0  0
    3.4533    4.5043    0.0000 C   0  0  0  0  0  0  0  0  0  0  0  0
    1.7517    0.5005    0.0000 C   0  0  0  0  0  0  0  0  0  0  0  0
    3.4533    0.5005    0.0000 C   0  0  0  0  0  0  0  0  0  0  0  0
    0.0000    3.5034    0.0000 C   0  0  0  0  0  0  0  0  0  0  0  0
    0.8508    5.0048    0.0000 C   0  0  0  0  0  0  0  0  0  0  0  0
    5.2050    3.5034    0.0000 C   0  0  0  0  0  0  0  0  0  0  0  0
    4.3542    5.0048    0.0000 C   0  0  0  0  0  0  0  0  0  0  0  0
    2.6025    0.0000    0.0000 C   0  0  0  0  0  0  0  0  0  0  0  0
    0.0000    4.5043    0.0000 C   0  0  0  0  0  0  0  0  0  0  0  0
    5.2050    4.5043    0.0000 C   0  0  0  0  0  0  0  0  0  0  0  0
  1  2  1  0  0  0  0 
  1  3  1  0  0  0  0 
  1  4  1  0  0  0  0 
  5  2  2  0  0  0  0 
  2  6  1  0  0  0  0 
  3  7  2  0  0  0  0 
  8  3  1  0  0  0  0 
  9  4  2  0  0  0  0 
  4 10  1  0  0  0  0 
 11  5  1  0  0  0  0 
  6 12  2  0  0  0  0 
  7 13  1  0  0  0  0 
 14  8  2  0  0  0  0 
 15  9  1  0  0  0  0 
 10 16  2  0  0  0  0 
 17 11  2  0  0  0  0 
 12 17  1  0  0  0  0 
 13 18  2  0  0  0  0 
 18 14  1  0  0  0  0 
 19 15  2  0  0  0  0 
 16 19  1  0  0  0  0 
M  END
> <Name>
TRIPHENYLARSINE

> <Source>
NIST2DMolFile

> <Tox>
-4.305

> <CAS>
603-32-7

$$$$

  CDK

 17 19  0  0  0  0  0  0  0  0999 V2000
    0.0000    1.5247    0.0000 C   0  0  0  0  0  0  0  0  0  0  0  0
    0.0000    2.4395    0.0000 C   0  0  0  0  0  0  0  0  0  0  0  0
    0.9148    1.0165    0.0000 C   0  0  0  0  0  0  0  0  0  0  0  0
    0.9148    2.9985    0.0000 C   0  0  0  0  0  0  0  0  0  0  0  0
    1.7280    1.5247    0.0000 C   0  0  0  0  0  0  0  0  0  0  0  0
    1.7280    2.4395    0.0000 C   0  0  0  0  0  0  0  0  0  0  0  0
    2.6428    1.0165    0.0000 C   0  0  0  0  0  0  0  0  0  0  0  0
    2.6428    2.9985    0.0000 C   0  0  0  0  0  0  0  0  0  0  0  0
    3.4560    1.5247    0.0000 C   0  0  0  0  0  0  0  0  0  0  0  0
    2.6428    0.0000    0.0000 O   0  0  0  0  0  0  0  0  0  0  0  0
    3.4560    2.4395    0.0000 C   0  0  0  0  0  0  0  0  0  0  0  0
    2.6428    4.0150    0.0000 O   0  0  0  0  0  0  0  0  0  0  0  0
    4.3708    1.0165    0.0000 C   0  0  0  0  0  0  0  0  0  0  0  0
    4.3708    2.9985    0.0000 C   0  0  0  0  0  0  0  0  0  0  0  0
    5.2348    1.5247    0.0000 C   0  0  0  0  0  0  0  0  0  0  0  0
    5.2348    2.4395    0.0000 C   0  0  0  0  0  0  0  0  0  0  0  0
    6.0987    2.9985    0.0000 O   0  0  0  0  0  0  0  0  0  0  0  0
  1  2  2  0  0  0  0 
  3  1  1  0  0  0  0 
  2  4  1  0  0  0  0 
  5  3  2  0  0  0  0 
  4  6  2  0  0  0  0 
  5  6  1  0  0  0  0 
  7  5  1  0  0  0  0 
  6  8  1  0  0  0  0 
  9  7  1  0  0  0  0 
  7 10  2  0  0  0  0 
  8 11  1  0  0  0  0 
  8 12  2  0  0  0  0 
  9 11  2  0  0  0  0 
 13  9  1  0  0  0  0 
 11 14  1  0  0  0  0 
 15 13  2  0  0  0  0 
 14 16  2  0  0  0  0 
 16 15  1  0  0  0  0 
 16 17  1  0  0  0  0 
M  END
> <Name>
2-HYDROXYANTHRAQUINONE

> <Source>
NIST2DMolFile

> <Tox>
-10.164

> <CAS>
605-32-3

$$$$

  CDK

 13 13  0  0  0  0  0  0  0  0999 V2000
    3.4548   -3.9869    0.0000 C   0  0  0  0  0  0  0  0  0  0  0  0
    3.4548   -2.6602    0.0000 C   0  0  0  0  0  0  0  0  0  0  0  0
    2.3009   -1.9900    0.0000 C   0  0  0  0  0  0  0  0  0  0  0  0
    4.6088   -1.9900    0.0000 C   0  0  0  0  0  0  0  0  0  0  0  0
    2.3009   -0.6633    0.0000 C   0  0  0  0  0  0  0  0  0  0  0  0
    1.1539   -2.6602    0.0000 N   0  0  0  0  0  0  0  0  0  0  0  0
    4.6088   -0.6633    0.0000 C   0  0  0  0  0  0  0  0  0  0  0  0
    5.7558   -2.6602    0.0000 N   0  0  0  0  0  0  0  0  0  0  0  0
    3.4548   -0.0000    0.0000 C   0  0  0  0  0  0  0  0  0  0  0  0
    1.1539   -3.9869    0.0000 O   0  0  0  0  0  0  0  0  0  0  0  0
    0.0000   -1.9900    0.0000 O   0  0  0  0  0  0  0  0  0  0  0  0
    5.7558   -3.9869    0.0000 O   0  0  0  0  0  0  0  0  0  0  0  0
    6.9097   -1.9900    0.0000 O   0  0  0  0  0  0  0  0  0  0  0  0
  1  2  1  0  0  0  0 
  2  3  2  0  0  0  0 
  2  4  1  0  0  0  0 
  3  5  1  0  0  0  0 
  3  6  1  0  0  0  0 
  7  4  2  0  0  0  0 
  4  8  1  0  0  0  0 
  5  9  2  0  0  0  0 
  6 10  2  0  0  0  0 
  6 11  1  0  0  0  0 
  9  7  1  0  0  0  0 
  8 12  2  0  0  0  0 
  8 13  1  0  0  0  0 
M  CHG  1   6   1
M  CHG  1   8   1
M  CHG  1  11  -1
M  CHG  1  13  -1
M  END
> <Name>
2,6-DINITROTOLUENE

> <Source>
DSSTox2DMolFile

> <Tox>
-3.246

> <CAS>
606-20-2

$$$$

  CDK

 12 11  0  0  0  0  0  0  0  0999 V2000
   -0.0959   -1.1843   -1.3963 O   0  0  0  0  0  0  0  0  0  0  0  0
   -0.4252   -0.0280   -0.6362 C   0  0  0  0  0  0  0  0  0  0  0  0
    0.4253   -0.0280    0.6364 C   0  0  0  0  0  0  0  0  0  0  0  0
   -1.9223   -0.0558   -0.3747 C   0  0  0  0  0  0  0  0  0  0  0  0
    0.0959   -1.1844    1.3962 O   0  0  0  0  0  0  0  0  0  0  0  0
    1.9224   -0.0559    0.3747 C   0  0  0  0  0  0  0  0  0  0  0  0
   -2.2935    1.0734    0.2969 O   0  0  0  0  0  0  0  0  0  0  0  0
   -2.6675   -0.9700   -0.7037 O   0  0  0  0  0  0  0  0  0  0  0  0
    2.2934    1.0735   -0.2968 O   0  0  0  0  0  0  0  0  0  0  0  0
    2.6675   -0.9701    0.7035 O   0  0  0  0  0  0  0  0  0  0  0  0
   -3.6820    1.1647    0.6302 C   0  0  0  0  0  0  0  0  0  0  0  0
    3.6819    1.1649   -0.6304 C   0  0  0  0  0  0  0  0  0  0  0  0
  1  2  1  0  0  0  0 
  2  3  1  0  0  0  0 
  2  4  1  0  0  0  0 
  5  3  1  0  0  0  0 
  3  6  1  0  0  0  0 
  7  4  1  0  0  0  0 
  8  4  2  0  0  0  0 
  9  6  1  0  0  0  0 
 10  6  2  0  0  0  0 
  7 11  1  0  0  0  0 
  9 12  1  0  0  0  0 
M  END
> <Name>
L-DIMETHYL TARTRATE

> <Source>
Chemidplus3DMolFile

> <Tox>
-3.189

> <CAS>
608-68-4

$$$$

  CDK

 11 11  0  0  0  0  0  0  0  0999 V2000
    3.4504   -0.6579    0.0000 C   0  0  0  0  0  0  0  0  0  0  0  0
    3.4504   -2.0104    0.0000 C   0  0  0  0  0  0  0  0  0  0  0  0
    2.3141   -0.0000    0.0000 C   0  0  0  0  0  0  0  0  0  0  0  0
    4.6005   -0.0000    0.0000 Cl  0  0  0  0  0  0  0  0  0  0  0  0
    2.3141   -2.6683    0.0000 C   0  0  0  0  0  0  0  0  0  0  0  0
    4.6005   -2.6683    0.0000 Cl  0  0  0  0  0  0  0  0  0  0  0  0
    1.1501   -0.6579    0.0000 C   0  0  0  0  0  0  0  0  0  0  0  0
    1.1501   -2.0104    0.0000 C   0  0  0  0  0  0  0  0  0  0  0  0
    2.3141   -3.9932    0.0000 Cl  0  0  0  0  0  0  0  0  0  0  0  0
    0.0000   -0.0000    0.0000 Cl  0  0  0  0  0  0  0  0  0  0  0  0
    0.0000   -2.6683    0.0000 Cl  0  0  0  0  0  0  0  0  0  0  0  0
  1  2  1  0  0  0  0 
  1  3  2  0  0  0  0 
  1  4  1  0  0  0  0 
  2  5  2  0  0  0  0 
  2  6  1  0  0  0  0 
  3  7  1  0  0  0  0 
  5  8  1  0  0  0  0 
  5  9  1  0  0  0  0 
  7  8  2  0  0  0  0 
  7 10  1  0  0  0  0 
  8 11  1  0  0  0  0 
M  END
> <Name>
PENTACHLOROBENZENE

> <Source>
DSSTox2DMolFile

> <Tox>
-2.996

> <CAS>
608-93-5

$$$$

  CDK

  8  7  0  0  0  0  0  0  0  0999 V2000
    3.5642    2.3722    1.2726 C   0  0  0  0  0  0  0  0  0  0  0  0
    2.3303    2.4971    2.1909 C   0  0  0  0  0  0  0  0  0  0  0  0
    4.4771    1.2569    1.7652 C   0  0  0  0  0  0  0  0  0  0  0  0
    4.3599    3.6631    1.1826 C   0  0  0  0  0  0  0  0  0  0  0  0
    1.4475    3.6981    1.8340 C   0  0  0  0  0  0  0  0  0  0  0  0
    1.5109    1.2001    2.1310 C   0  0  0  0  0  0  0  0  0  0  0  0
    0.6528    4.1947    3.0206 C   0  0  0  0  0  0  0  0  0  0  0  0
    0.9360    0.9459    0.7543 C   0  0  0  0  0  0  0  0  0  0  0  0
  1  2  1  0  0  0  0 
  1  3  1  0  0  0  0 
  1  4  1  0  0  0  0 
  2  5  1  0  0  0  0 
  2  6  1  0  0  0  0 
  5  7  1  0  0  0  0 
  6  8  1  0  0  0  0 
M  END
> <Name>
2-METHYL-3-ETHYLPENTANE

> <Source>
NIST3DMolFile

> <Tox>
1.380

> <CAS>
609-26-7

$$$$

  CDK

 10 10  0  0  0  0  0  0  0  0999 V2000
    0.0000    1.4834    0.0000 C   0  0  0  0  0  0  0  0  0  0  0  0
    0.8696    1.9949    0.0000 C   0  0  0  0  0  0  0  0  0  0  0  0
    0.0000    0.5115    0.0000 C   0  0  0  0  0  0  0  0  0  0  0  0
    1.6880    1.4834    0.0000 C   0  0  0  0  0  0  0  0  0  0  0  0
    0.8696    3.0180    0.0000 C   0  0  0  0  0  0  0  0  0  0  0  0
    0.8696    0.0000    0.0000 C   0  0  0  0  0  0  0  0  0  0  0  0
    1.6880    0.5115    0.0000 C   0  0  0  0  0  0  0  0  0  0  0  0
    2.5576    1.9949    0.0000 N   0  0  0  0  0  0  0  0  0  0  0  0
    3.4783    1.4834    0.0000 C   0  0  0  0  0  0  0  0  0  0  0  0
    2.5576    3.0180    0.0000 C   0  0  0  0  0  0  0  0  0  0  0  0
  1  2  2  0  0  0  0 
  3  1  1  0  0  0  0 
  2  4  1  0  0  0  0 
  2  5  1  0  0  0  0 
  6  3  2  0  0  0  0 
  4  7  2  0  0  0  0 
  4  8  1  0  0  0  0 
  7  6  1  0  0  0  0 
  8  9  1  0  0  0  0 
  8 10  1  0  0  0  0 
M  END
> <Name>
N,N-DIMETHYL-O-TOLUIDINE

> <Source>
NIST2DMolFile

> <Tox>
-0.064

> <CAS>
609-72-3

$$$$

  CDK

 13 13  0  0  0  0  0  0  0  0999 V2000
    1.2213    0.4968    0.7984 O   0  0  0  0  0  0  0  0  0  0  0  0
   -0.0913    0.5807    0.4393 C   0  0  0  0  0  0  0  0  0  0  0  0
    2.1170    0.6292   -0.2742 C   0  0  0  0  0  0  0  0  0  0  0  0
   -0.8145   -0.5569    0.0810 C   0  0  0  0  0  0  0  0  0  0  0  0
   -0.7104    1.8306    0.4356 C   0  0  0  0  0  0  0  0  0  0  0  0
    1.8107    0.8032   -1.4463 O   0  0  0  0  0  0  0  0  0  0  0  0
    3.5285    0.5232    0.2218 C   0  0  0  0  0  0  0  0  0  0  0  0
   -0.1998   -1.8392    0.0794 N   0  0  0  0  0  0  0  0  0  0  0  0
   -2.1569   -0.4446   -0.2811 C   0  0  0  0  0  0  0  0  0  0  0  0
   -2.0529    1.9429    0.0737 C   0  0  0  0  0  0  0  0  0  0  0  0
   -0.8828   -2.8382   -0.2484 O   0  0  0  0  0  0  0  0  0  0  0  0
    1.0072   -1.9331    0.4055 O   0  0  0  0  0  0  0  0  0  0  0  0
   -2.7760    0.8054   -0.2847 C   0  0  0  0  0  0  0  0  0  0  0  0
  1  2  1  0  0  0  0 
  1  3  1  0  0  0  0 
  2  4  1  0  0  0  0 
  2  5  2  0  0  0  0 
  6  3  2  0  0  0  0 
  3  7  1  0  0  0  0 
  8  4  1  0  0  0  0 
  4  9  2  0  0  0  0 
  5 10  1  0  0  0  0 
 11  8  1  0  0  0  0 
 12  8  2  0  0  0  0 
  9 13  1  0  0  0  0 
 10 13  2  0  0  0  0 
M  CHG  1   8   1
M  CHG  1  11  -1
M  END
> <Name>
O-NITROPHENYL ACETATE

> <Source>
Chemidplus3DMolFile

> <Tox>
-2.662

> <CAS>
610-69-5

$$$$

  CDK

  9  9  0  0  0  0  0  0  0  0999 V2000
    0.9927    3.2383    1.3945 C   0  0  0  0  0  0  0  0  0  0  0  0
    2.0683    2.1738    1.3945 C   0  0  0  0  0  0  0  0  0  0  0  0
    3.4552    2.7367    1.3946 C   0  0  0  0  0  0  0  0  0  0  0  0
    4.4957    2.1232    2.1058 C   0  0  0  0  0  0  0  0  0  0  0  0
    3.7257    3.8847    0.6446 C   0  0  0  0  0  0  0  0  0  0  0  0
    4.2805    0.8924    2.9116 C   0  0  0  0  0  0  0  0  0  0  0  0
    5.7807    2.6714    2.0520 C   0  0  0  0  0  0  0  0  0  0  0  0
    5.0046    4.4192    0.5934 C   0  0  0  0  0  0  0  0  0  0  0  0
    6.0366    3.8096    1.3003 C   0  0  0  0  0  0  0  0  0  0  0  0
  1  2  1  0  0  0  0 
  2  3  1  0  0  0  0 
  4  3  2  0  0  0  0 
  3  5  1  0  0  0  0 
  4  6  1  0  0  0  0 
  7  4  1  0  0  0  0 
  5  8  2  0  0  0  0 
  9  7  2  0  0  0  0 
  8  9  1  0  0  0  0 
M  END
> <Name>
1-ETHYL-2-METHYLBENZENE

> <Source>
NIST3DMolFile

> <Tox>
0.417

> <CAS>
611-14-3

$$$$

  CDK

  9  9  0  0  0  0  0  0  0  0999 V2000
    1.0164    3.0365    0.5589 C   0  0  0  0  0  0  0  0  0  0  0  0
    2.0659    3.7598    0.9384 C   0  0  0  0  0  0  0  0  0  0  0  0
    3.4591    3.3144    0.8572 C   0  0  0  0  0  0  0  0  0  0  0  0
    3.9025    2.0164    1.1463 C   0  0  0  0  0  0  0  0  0  0  0  0
    4.3934    4.2789    0.4597 C   0  0  0  0  0  0  0  0  0  0  0  0
    2.9721    0.9493    1.6001 C   0  0  0  0  0  0  0  0  0  0  0  0
    5.2623    1.7142    1.0212 C   0  0  0  0  0  0  0  0  0  0  0  0
    5.7373    3.9677    0.3235 C   0  0  0  0  0  0  0  0  0  0  0  0
    6.1739    2.6767    0.6083 C   0  0  0  0  0  0  0  0  0  0  0  0
  1  2  2  0  0  0  0 
  2  3  1  0  0  0  0 
  4  3  2  0  0  0  0 
  3  5  1  0  0  0  0 
  4  6  1  0  0  0  0 
  7  4  1  0  0  0  0 
  5  8  2  0  0  0  0 
  9  7  2  0  0  0  0 
  8  9  1  0  0  0  0 
M  END
> <Name>
O-METHYLSTYRENE

> <Source>
NIST3DMolFile

> <Tox>
0.267

> <CAS>
611-15-4

$$$$

  CDK

 11 12  0  0  0  0  0  0  0  0999 V2000
    3.4555   -0.0000    0.0000 C   0  0  0  0  0  0  0  0  0  0  0  0
    3.4555   -1.3315    0.0000 C   0  0  0  0  0  0  0  0  0  0  0  0
    4.6073   -1.9950    0.0000 C   0  0  0  0  0  0  0  0  0  0  0  0
    2.3037   -1.9950    0.0000 C   0  0  0  0  0  0  0  0  0  0  0  0
    4.6073   -3.3265    0.0000 C   0  0  0  0  0  0  0  0  0  0  0  0
    2.3037   -3.3265    0.0000 C   0  0  0  0  0  0  0  0  0  0  0  0
    1.1518   -1.3315    0.0000 N   0  0  0  0  0  0  0  0  0  0  0  0
    3.4555   -3.9899    0.0000 C   0  0  0  0  0  0  0  0  0  0  0  0
    1.1518   -3.9899    0.0000 C   0  0  0  0  0  0  0  0  0  0  0  0
    0.0000   -1.9950    0.0000 C   0  0  0  0  0  0  0  0  0  0  0  0
    0.0000   -3.3265    0.0000 C   0  0  0  0  0  0  0  0  0  0  0  0
  1  2  1  0  0  0  0 
  2  3  2  0  0  0  0 
  2  4  1  0  0  0  0 
  3  5  1  0  0  0  0 
  6  4  1  0  0  0  0 
  7  4  2  0  0  0  0 
  5  8  2  0  0  0  0 
  8  6  1  0  0  0  0 
  6  9  2  0  0  0  0 
 10  7  1  0  0  0  0 
  9 11  1  0  0  0  0 
 11 10  2  0  0  0  0 
M  END
> <Name>
8-METHYLQUINOLINE

> <Source>
DSSTox2DMolFile

> <Tox>
-1.602

> <CAS>
611-32-5

$$$$

  CDK

 11 12  0  0  0  0  0  0  0  0999 V2000
    0.0000   -0.0000    0.0000 C   0  0  0  0  0  0  0  0  0  0  0  0
    1.1516   -0.6679    0.0000 C   0  0  0  0  0  0  0  0  0  0  0  0
    1.1516   -1.9980    0.0000 C   0  0  0  0  0  0  0  0  0  0  0  0
    2.3032   -0.0000    0.0000 C   0  0  0  0  0  0  0  0  0  0  0  0
    2.3032   -2.6601    0.0000 C   0  0  0  0  0  0  0  0  0  0  0  0
    3.4547   -0.6679    0.0000 C   0  0  0  0  0  0  0  0  0  0  0  0
    3.4547   -1.9980    0.0000 C   0  0  0  0  0  0  0  0  0  0  0  0
    4.6063   -0.0000    0.0000 N   0  0  0  0  0  0  0  0  0  0  0  0
    4.6063   -2.6601    0.0000 C   0  0  0  0  0  0  0  0  0  0  0  0
    5.7579   -0.6679    0.0000 C   0  0  0  0  0  0  0  0  0  0  0  0
    5.7579   -1.9980    0.0000 C   0  0  0  0  0  0  0  0  0  0  0  0
  1  2  1  0  0  0  0 
  2  3  2  0  0  0  0 
  2  4  1  0  0  0  0 
  3  5  1  0  0  0  0 
  6  4  2  0  0  0  0 
  5  7  2  0  0  0  0 
  7  6  1  0  0  0  0 
  8  6  1  0  0  0  0 
  7  9  1  0  0  0  0 
 10  8  2  0  0  0  0 
  9 11  2  0  0  0  0 
 11 10  1  0  0  0  0 
M  END
> <Name>
7-METHYLQUINOLINE

> <Source>
DSSTox2DMolFile

> <Tox>
-2.054

> <CAS>
612-60-2

$$$$

  CDK

 16 18  0  0  0  0  0  0  0  0999 V2000
    4.6339    3.8629    2.5248 C   0  0  0  0  0  0  0  0  0  0  0  0
    5.2017    2.6141    2.6497 C   0  0  0  0  0  0  0  0  0  0  0  0
    3.3975    4.0384    1.8533 C   0  0  0  0  0  0  0  0  0  0  0  0
    4.5292    1.4909    2.0929 C   0  0  0  0  0  0  0  0  0  0  0  0
    6.4833    2.4343    3.3472 C   0  0  0  0  0  0  0  0  0  0  0  0
    2.7410    2.9179    1.3056 C   0  0  0  0  0  0  0  0  0  0  0  0
    2.8055    5.3242    1.7210 C   0  0  0  0  0  0  0  0  0  0  0  0
    3.3369    1.6352    1.4410 C   0  0  0  0  0  0  0  0  0  0  0  0
    7.0527    1.1635    3.4871 C   0  0  0  0  0  0  0  0  0  0  0  0
    7.1586    3.5357    3.8859 C   0  0  0  0  0  0  0  0  0  0  0  0
    1.5028    3.0955    0.6323 C   0  0  0  0  0  0  0  0  0  0  0  0
    1.6118    5.4693    1.0681 C   0  0  0  0  0  0  0  0  0  0  0  0
    8.2636    1.0002    4.1472 C   0  0  0  0  0  0  0  0  0  0  0  0
    8.3693    3.3700    4.5457 C   0  0  0  0  0  0  0  0  0  0  0  0
    0.9540    4.3439    0.5180 C   0  0  0  0  0  0  0  0  0  0  0  0
    8.9253    2.1022    4.6785 C   0  0  0  0  0  0  0  0  0  0  0  0
  1  2  2  0  0  0  0 
  3  1  1  0  0  0  0 
  2  4  1  0  0  0  0 
  2  5  1  0  0  0  0 
  3  6  2  0  0  0  0 
  7  3  1  0  0  0  0 
  4  8  2  0  0  0  0 
  9  5  2  0  0  0  0 
  5 10  1  0  0  0  0 
  8  6  1  0  0  0  0 
  6 11  1  0  0  0  0 
 12  7  2  0  0  0  0 
 13  9  1  0  0  0  0 
 10 14  2  0  0  0  0 
 11 15  2  0  0  0  0 
 15 12  1  0  0  0  0 
 16 13  2  0  0  0  0 
 14 16  1  0  0  0  0 
M  END
> <Name>
NAPHTHALENE, 2-PHENYL-

> <Source>
NIST3DMolFile

> <Tox>
-4.456

> <CAS>
612-94-2

$$$$

  CDK

  8  8  0  0  0  0  0  0  0  0999 V2000
    1.4918    2.5858    0.0000 C   0  0  0  0  0  0  0  0  0  0  0  0
    0.9945    1.7405    0.0000 C   0  0  0  0  0  0  0  0  0  0  0  0
    2.4864    2.5858    0.0000 C   0  0  0  0  0  0  0  0  0  0  0  0
    1.4918    0.8454    0.0000 C   0  0  0  0  0  0  0  0  0  0  0  0
    0.0000    1.7405    0.0000 C   0  0  0  0  0  0  0  0  0  0  0  0
    2.9836    1.7405    0.0000 C   0  0  0  0  0  0  0  0  0  0  0  0
    2.4864    0.8454    0.0000 C   0  0  0  0  0  0  0  0  0  0  0  0
    0.9448    0.0000    0.0000 I   0  0  0  0  0  0  0  0  0  0  0  0
  1  2  2  0  0  0  0 
  3  1  1  0  0  0  0 
  2  4  1  0  0  0  0 
  2  5  1  0  0  0  0 
  6  3  2  0  0  0  0 
  4  7  2  0  0  0  0 
  4  8  1  0  0  0  0 
  7  6  1  0  0  0  0 
M  END
> <Name>
O-IODOTOLUENE

> <Source>
NIST2DMolFile

> <Tox>
-0.344

> <CAS>
615-37-2

$$$$

  CDK

  6  5  0  0  0  0  0  0  0  0999 V2000
    2.5838    1.4906    0.0000 C   0  0  0  0  0  0  0  0  0  0  0  0
    1.7391    0.9938    0.0000 C   0  0  0  0  0  0  0  0  0  0  0  0
    3.4781    0.9938    0.0000 C   0  0  0  0  0  0  0  0  0  0  0  0
    0.8944    1.4906    0.0000 C   0  0  0  0  0  0  0  0  0  0  0  0
    1.7391    0.0000    0.0000 Cl  0  0  0  0  0  0  0  0  0  0  0  0
    0.0000    0.9938    0.0000 C   0  0  0  0  0  0  0  0  0  0  0  0
  1  2  1  0  0  0  0 
  1  3  1  0  0  0  0 
  2  4  1  0  0  0  0 
  2  5  1  0  0  0  0 
  4  6  1  0  0  0  0 
M  END
> <Name>
3-CHLOROPENTANE

> <Source>
NIST2DMolFile

> <Tox>
1.670

> <CAS>
616-20-6

$$$$

  CDK

  6  5  0  0  0  0  0  0  0  0999 V2000
    1.1494   -1.3255    0.0000 C   0  0  0  0  0  0  0  0  0  0  0  0
    2.3023   -1.9986    0.0000 C   0  0  0  0  0  0  0  0  0  0  0  0
    0.0000   -1.9986    0.0000 Cl  0  0  0  0  0  0  0  0  0  0  0  0
    3.4518   -1.3255    0.0000 C   0  0  0  0  0  0  0  0  0  0  0  0
    2.3023   -3.3241    0.0000 Cl  0  0  0  0  0  0  0  0  0  0  0  0
    3.4518   -0.0000    0.0000 C   0  0  0  0  0  0  0  0  0  0  0  0
  1  2  1  0  0  0  0 
  1  3  1  0  0  0  0 
  2  4  1  0  0  0  0 
  2  5  1  0  0  0  0 
  4  6  1  0  0  0  0 
M  END
> <Name>
1,2-DICHLOROBUTANE

> <Source>
DSSTox2DMolFile

> <Tox>
1.320

> <CAS>
616-21-7

$$$$

  CDK

  6  5  0  0  0  0  0  0  0  0999 V2000
    2.3054   -1.3318    0.0000 C   0  0  0  0  0  0  0  0  0  0  0  0
    2.3054   -0.0000    0.0000 O   0  0  0  0  0  0  0  0  0  0  0  0
    1.1527   -2.0023    0.0000 O   0  0  0  0  0  0  0  0  0  0  0  0
    3.4397   -2.0023    0.0000 O   0  0  0  0  0  0  0  0  0  0  0  0
    0.0000   -1.3318    0.0000 C   0  0  0  0  0  0  0  0  0  0  0  0
    4.5924   -1.3318    0.0000 C   0  0  0  0  0  0  0  0  0  0  0  0
  1  2  2  0  0  0  0 
  1  3  1  0  0  0  0 
  1  4  1  0  0  0  0 
  3  5  1  0  0  0  0 
  4  6  1  0  0  0  0 
M  END
> <Name>
Carbonic acid, dimethyl ester

> <Source>
DSSTox2DMolFile

> <Tox>
1.744

> <CAS>
616-38-6

$$$$

  CDK

  6  6  0  0  0  0  0  0  0  0999 V2000
    3.4701    0.5811    0.9116 C   0  0  0  0  0  0  0  0  0  0  0  0
    2.8218    1.9047    0.8565 C   0  0  0  0  0  0  0  0  0  0  0  0
    1.3928    2.0641    0.7569 C   0  0  0  0  0  0  0  0  0  0  0  0
    3.4712    3.1092    0.8914 C   0  0  0  0  0  0  0  0  0  0  0  0
    1.0217    3.3764    0.7206 C   0  0  0  0  0  0  0  0  0  0  0  0
    2.3783    4.4400    0.8052 S   0  0  0  0  0  0  0  0  0  0  0  0
  1  2  1  0  0  0  0 
  2  3  1  0  0  0  0 
  4  2  2  0  0  0  0 
  3  5  2  0  0  0  0 
  6  4  1  0  0  0  0 
  5  6  1  0  0  0  0 
M  END
> <Name>
3-METHYLTHIOPHENE

> <Source>
NIST3DMolFile

> <Tox>
1.346

> <CAS>
616-44-4

$$$$

  CDK

  6  6  0  0  0  0  0  0  0  0999 V2000
    1.0745   -0.0000    0.0000 N   0  0  0  0  0  0  0  0  0  0  0  0
    2.1456   -0.7846    0.0000 C   0  0  0  0  0  0  0  0  0  0  0  0
    0.0000   -0.7846    0.0000 C   0  0  0  0  0  0  0  0  0  0  0  0
    1.7465   -2.0501    0.0000 C   0  0  0  0  0  0  0  0  0  0  0  0
    3.4112   -0.3684    0.0000 O   0  0  0  0  0  0  0  0  0  0  0  0
    0.4162   -2.0501    0.0000 C   0  0  0  0  0  0  0  0  0  0  0  0
  1  2  1  0  0  0  0 
  1  3  1  0  0  0  0 
  2  4  1  0  0  0  0 
  2  5  2  0  0  0  0 
  3  6  1  0  0  0  0 
  4  6  1  0  0  0  0 
M  END
> <Name>
PYRROLIDONE

> <Source>
DSSTox2DMolFile

> <Tox>
-2.023

> <CAS>
616-45-5

$$$$

  CDK

  8  7  0  0  0  0  0  0  0  0999 V2000
    1.7063    1.5056    0.0000 C   0  0  0  0  0  0  0  0  0  0  0  0
    2.6096    1.0037    0.0000 C   0  0  0  0  0  0  0  0  0  0  0  0
    0.8531    1.0037    0.0000 C   0  0  0  0  0  0  0  0  0  0  0  0
    3.4628    1.5056    0.0000 C   0  0  0  0  0  0  0  0  0  0  0  0
    2.6096    0.0000    0.0000 O   0  0  0  0  0  0  0  0  0  0  0  0
    0.0000    1.5056    0.0000 C   0  0  0  0  0  0  0  0  0  0  0  0
    3.4628    2.5093    0.0000 C   0  0  0  0  0  0  0  0  0  0  0  0
    4.3159    1.0037    0.0000 C   0  0  0  0  0  0  0  0  0  0  0  0
  1  2  1  0  0  0  0 
  1  3  1  0  0  0  0 
  2  4  1  0  0  0  0 
  2  5  1  0  0  0  0 
  3  6  1  0  0  0  0 
  4  7  1  0  0  0  0 
  4  8  1  0  0  0  0 
M  END
> <Name>
2-METHYL-3-HEXANOL

> <Source>
NIST2DMolFile

> <Tox>
0.130

> <CAS>
617-29-8

$$$$

  CDK

  9  8  0  0  0  0  0  0  0  0999 V2000
    1.7055    1.5049    0.0000 O   0  0  0  0  0  0  0  0  0  0  0  0
    2.6084    1.0032    0.0000 C   0  0  0  0  0  0  0  0  0  0  0  0
    0.8528    1.0032    0.0000 C   0  0  0  0  0  0  0  0  0  0  0  0
    3.4612    1.5049    0.0000 C   0  0  0  0  0  0  0  0  0  0  0  0
    2.6084    0.0000    0.0000 O   0  0  0  0  0  0  0  0  0  0  0  0
    0.8528    0.0000    0.0000 C   0  0  0  0  0  0  0  0  0  0  0  0
    0.0000    1.5049    0.0000 C   0  0  0  0  0  0  0  0  0  0  0  0
    3.4612    2.5081    0.0000 C   0  0  0  0  0  0  0  0  0  0  0  0
    4.3139    1.0032    0.0000 C   0  0  0  0  0  0  0  0  0  0  0  0
  1  2  1  0  0  0  0 
  1  3  1  0  0  0  0 
  2  4  1  0  0  0  0 
  2  5  2  0  0  0  0 
  3  6  1  0  0  0  0 
  3  7  1  0  0  0  0 
  4  8  1  0  0  0  0 
  4  9  1  0  0  0  0 
M  END
> <Name>
ISOPROPYL ISOBUTYRATE

> <Source>
NIST2DMolFile

> <Tox>
1.204

> <CAS>
617-50-5

$$$$

  CDK

  7  6  0  0  0  0  0  0  0  0999 V2000
    4.6251    4.2317    1.2189 C   0  0  0  0  0  0  0  0  0  0  0  0
    3.3782    3.4453    1.6420 C   0  0  0  0  0  0  0  0  0  0  0  0
    5.8726    3.7454    1.9224 C   0  0  0  0  0  0  0  0  0  0  0  0
    3.5090    1.9840    1.1975 C   0  0  0  0  0  0  0  0  0  0  0  0
    2.1324    4.1197    1.0563 C   0  0  0  0  0  0  0  0  0  0  0  0
    2.6764    1.0325    2.0258 C   0  0  0  0  0  0  0  0  0  0  0  0
    0.8759    3.8281    1.8454 C   0  0  0  0  0  0  0  0  0  0  0  0
  1  2  1  0  0  0  0 
  1  3  1  0  0  0  0 
  2  4  1  0  0  0  0 
  2  5  1  0  0  0  0 
  4  6  1  0  0  0  0 
  5  7  1  0  0  0  0 
M  END
> <Name>
3-ETHYLPENTANE

> <Source>
NIST3DMolFile

> <Tox>
1.763

> <CAS>
617-78-7

$$$$

  CDK

  7  6  0  0  0  0  0  0  0  0999 V2000
    3.9928   -0.0000    0.0000 C   0  0  0  0  0  0  0  0  0  0  0  0
    2.6632   -0.0000    0.0000 C   0  0  0  0  0  0  0  0  0  0  0  0
    1.9964   -1.1499    0.0000 N   0  0  0  0  0  0  0  0  0  0  0  0
    2.6632   -2.3038    0.0000 C   0  0  0  0  0  0  0  0  0  0  0  0
    0.6668   -1.1499    0.0000 C   0  0  0  0  0  0  0  0  0  0  0  0
    3.9928   -2.3038    0.0000 C   0  0  0  0  0  0  0  0  0  0  0  0
    0.0000   -0.0000    0.0000 O   0  0  0  0  0  0  0  0  0  0  0  0
  1  2  1  0  0  0  0 
  2  3  1  0  0  0  0 
  3  4  1  0  0  0  0 
  3  5  1  0  0  0  0 
  4  6  1  0  0  0  0 
  5  7  2  0  0  0  0 
M  END
> <Name>
N,N-DIETHYLFORMAMIDE

> <Source>
DSSTox2DMolFile

> <Tox>
0.083

> <CAS>
617-84-5

$$$$

  CDK

  9  9  0  0  0  0  0  0  0  0999 V2000
    2.0481    1.6897    0.0000 C   0  0  0  0  0  0  0  0  0  0  0  0
    1.5361    0.8192    0.0000 C   0  0  0  0  0  0  0  0  0  0  0  0
    3.0721    1.6897    0.0000 C   0  0  0  0  0  0  0  0  0  0  0  0
    2.0481    0.0000    0.0000 C   0  0  0  0  0  0  0  0  0  0  0  0
    0.5120    0.8192    0.0000 C   0  0  0  0  0  0  0  0  0  0  0  0
    3.5842    0.8192    0.0000 C   0  0  0  0  0  0  0  0  0  0  0  0
    3.0721    0.0000    0.0000 C   0  0  0  0  0  0  0  0  0  0  0  0
    0.0000    0.0000    0.0000 Br  0  0  0  0  0  0  0  0  0  0  0  0
    0.0000    1.6897    0.0000 O   0  0  0  0  0  0  0  0  0  0  0  0
  1  2  2  0  0  0  0 
  3  1  1  0  0  0  0 
  2  4  1  0  0  0  0 
  2  5  1  0  0  0  0 
  6  3  2  0  0  0  0 
  4  7  2  0  0  0  0 
  5  8  1  0  0  0  0 
  5  9  2  0  0  0  0 
  7  6  1  0  0  0  0 
M  END
> <Name>
BENZOYL BROMIDE

> <Source>
NIST2DMolFile

> <Tox>
-0.654

> <CAS>
618-32-6

$$$$

  CDK

 10 10  0  0  0  0  0  0  0  0999 V2000
    3.4884    0.8472    0.0000 C   0  0  0  0  0  0  0  0  0  0  0  0
    2.9900    1.7442    0.0000 C   0  0  0  0  0  0  0  0  0  0  0  0
    3.4884    2.5914    0.0000 C   0  0  0  0  0  0  0  0  0  0  0  0
    1.9934    1.7442    0.0000 C   0  0  0  0  0  0  0  0  0  0  0  0
    1.4950    0.8472    0.0000 C   0  0  0  0  0  0  0  0  0  0  0  0
    1.4950    2.5914    0.0000 C   0  0  0  0  0  0  0  0  0  0  0  0
    0.4983    0.8472    0.0000 C   0  0  0  0  0  0  0  0  0  0  0  0
    0.4983    2.5914    0.0000 C   0  0  0  0  0  0  0  0  0  0  0  0
    0.0000    0.0000    0.0000 O   0  0  0  0  0  0  0  0  0  0  0  0
    0.0000    1.7442    0.0000 C   0  0  0  0  0  0  0  0  0  0  0  0
  1  2  1  0  0  0  0 
  2  3  1  0  0  0  0 
  2  4  1  0  0  0  0 
  5  4  2  0  0  0  0 
  4  6  1  0  0  0  0 
  7  5  1  0  0  0  0 
  6  8  2  0  0  0  0 
  7  9  1  0  0  0  0 
 10  7  2  0  0  0  0 
  8 10  1  0  0  0  0 
M  END
> <Name>
M-ISOPROPYLPHENOL

> <Source>
NIST2DMolFile

> <Tox>
-1.158

> <CAS>
618-45-1

$$$$

  CDK

 10 10  0  0  0  0  0  0  0  0999 V2000
    3.4884    0.8472    0.0000 Cl  0  0  0  0  0  0  0  0  0  0  0  0
    2.9900    1.7442    0.0000 C   0  0  0  0  0  0  0  0  0  0  0  0
    3.4884    2.5914    0.0000 O   0  0  0  0  0  0  0  0  0  0  0  0
    1.9934    1.7442    0.0000 C   0  0  0  0  0  0  0  0  0  0  0  0
    1.4950    0.8472    0.0000 C   0  0  0  0  0  0  0  0  0  0  0  0
    1.4950    2.5914    0.0000 C   0  0  0  0  0  0  0  0  0  0  0  0
    0.4983    0.8472    0.0000 C   0  0  0  0  0  0  0  0  0  0  0  0
    0.4983    2.5914    0.0000 C   0  0  0  0  0  0  0  0  0  0  0  0
    0.0000    0.0000    0.0000 Cl  0  0  0  0  0  0  0  0  0  0  0  0
    0.0000    1.7442    0.0000 C   0  0  0  0  0  0  0  0  0  0  0  0
  1  2  1  0  0  0  0 
  2  3  2  0  0  0  0 
  2  4  1  0  0  0  0 
  5  4  2  0  0  0  0 
  4  6  1  0  0  0  0 
  7  5  1  0  0  0  0 
  6  8  2  0  0  0  0 
  7  9  1  0  0  0  0 
 10  7  2  0  0  0  0 
  8 10  1  0  0  0  0 
M  END
> <Name>
M-CHLOROBENZOYLCHLORIDE

> <Source>
NIST2DMolFile

> <Tox>
-0.854

> <CAS>
618-46-2

$$$$

  CDK

 13 13  0  0  0  0  0  0  0  0999 V2000
   -0.0003    1.9860   -0.0049 C   0  0  0  0  0  0  0  0  0  0  0  0
   -1.2073    1.2876   -0.0045 C   0  0  0  0  0  0  0  0  0  0  0  0
    1.2071    1.2888   -0.0045 C   0  0  0  0  0  0  0  0  0  0  0  0
   -0.0030    3.4725    0.0063 C   0  0  0  0  0  0  0  0  0  0  0  0
   -1.2068   -0.1116   -0.0006 C   0  0  0  0  0  0  0  0  0  0  0  0
    1.2073   -0.1106   -0.0007 C   0  0  0  0  0  0  0  0  0  0  0  0
    0.0006   -0.8158    0.0015 C   0  0  0  0  0  0  0  0  0  0  0  0
   -2.5133   -0.8585    0.0003 N   0  0  0  0  0  0  0  0  0  0  0  0
    2.5142   -0.8569    0.0002 N   0  0  0  0  0  0  0  0  0  0  0  0
   -3.5507   -0.2279   -0.0006 O   0  0  0  0  0  0  0  0  0  0  0  0
   -2.5021   -2.0711    0.0020 O   0  0  0  0  0  0  0  0  0  0  0  0
    2.5032   -2.0696    0.0013 O   0  0  0  0  0  0  0  0  0  0  0  0
    3.5515   -0.2263    0.0000 O   0  0  0  0  0  0  0  0  0  0  0  0
  1  2  1  0  0  0  0 
  1  3  2  0  0  0  0 
  1  4  1  0  0  0  0 
  2  5  2  0  0  0  0 
  3  6  1  0  0  0  0 
  7  5  1  0  0  0  0 
  5  8  1  0  0  0  0 
  7  6  2  0  0  0  0 
  6  9  1  0  0  0  0 
  8 10  2  0  0  0  0 
  8 11  1  0  0  0  0 
  9 12  2  0  0  0  0 
  9 13  1  0  0  0  0 
M  CHG  1   8   1
M  CHG  1   9   1
M  CHG  1  11  -1
M  CHG  1  13  -1
M  END
> <Name>
3,5-Dinitrotoluene

> <Source>
DougDB3DMolFile

> <Tox>
-3.393

> <CAS>
618-85-9

$$$$

  CDK

  8  7  0  0  0  0  0  0  0  0999 V2000
    4.2837    2.5407    1.2871 C   0  0  0  0  0  0  0  0  0  0  0  0
    2.8098    2.5743    1.7033 C   0  0  0  0  0  0  0  0  0  0  0  0
    5.0659    3.6956    1.8947 C   0  0  0  0  0  0  0  0  0  0  0  0
    2.1052    1.2786    1.2845 C   0  0  0  0  0  0  0  0  0  0  0  0
    2.1358    3.8137    1.1063 C   0  0  0  0  0  0  0  0  0  0  0  0
    6.4726    3.7666    1.3478 C   0  0  0  0  0  0  0  0  0  0  0  0
    1.0779    0.8414    2.3072 C   0  0  0  0  0  0  0  0  0  0  0  0
    0.6931    3.9862    1.5333 C   0  0  0  0  0  0  0  0  0  0  0  0
  1  2  1  0  0  0  0 
  1  3  1  0  0  0  0 
  2  4  1  0  0  0  0 
  2  5  1  0  0  0  0 
  3  6  1  0  0  0  0 
  4  7  1  0  0  0  0 
  5  8  1  0  0  0  0 
M  END
> <Name>
3-ETHYLHEXANE

> <Source>
NIST3DMolFile

> <Tox>
1.301

> <CAS>
619-99-8

$$$$

  CDK

  8  8  0  0  0  0  0  0  0  0999 V2000
    3.1924    0.0004    0.9211 I   0  0  0  0  0  0  0  0  0  0  0  0
    1.9269   -0.0003   -0.7968 C   0  0  0  0  0  0  0  0  0  0  0  0
    0.4904   -0.0003   -0.3956 C   0  0  0  0  0  0  0  0  0  0  0  0
   -0.1814    1.2078   -0.2084 C   0  0  0  0  0  0  0  0  0  0  0  0
   -0.1816   -1.2082   -0.2080 C   0  0  0  0  0  0  0  0  0  0  0  0
   -1.5249    1.2082    0.1666 C   0  0  0  0  0  0  0  0  0  0  0  0
   -1.5252   -1.2079    0.1669 C   0  0  0  0  0  0  0  0  0  0  0  0
   -2.1967    0.0003    0.3542 C   0  0  0  0  0  0  0  0  0  0  0  0
  1  2  1  0  0  0  0 
  3  2  1  0  0  0  0 
  3  4  2  0  0  0  0 
  3  5  1  0  0  0  0 
  4  6  1  0  0  0  0 
  5  7  2  0  0  0  0 
  6  8  2  0  0  0  0 
  7  8  1  0  0  0  0 
M  END
> <Name>
BENZYL IODIDE

> <Source>
Chemidplus3DMolFile

> <Tox>
-0.903

> <CAS>
620-05-3

$$$$

  CDK

 16 16  0  0  0  0  0  0  0  0999 V2000
    4.2834    0.5039    0.0000 C   0  0  0  0  0  0  0  0  0  0  0  0
    4.2834    1.5118    0.0000 C   0  0  0  0  0  0  0  0  0  0  0  0
    3.4267    0.0000    0.0000 C   0  0  0  0  0  0  0  0  0  0  0  0
    3.4267    2.0157    0.0000 C   0  0  0  0  0  0  0  0  0  0  0  0
    2.5700    0.5039    0.0000 C   0  0  0  0  0  0  0  0  0  0  0  0
    2.5700    1.5118    0.0000 C   0  0  0  0  0  0  0  0  0  0  0  0
    1.7134    2.0157    0.0000 C   0  0  0  0  0  0  0  0  0  0  0  0
    1.7134    3.0236    0.0000 C   0  0  0  0  0  0  0  0  0  0  0  0
    0.8567    3.5275    0.0000 C   0  0  0  0  0  0  0  0  0  0  0  0
    2.5700    3.4771    0.0000 C   0  0  0  0  0  0  0  0  0  0  0  0
    0.0000    2.9732    0.0000 C   0  0  0  0  0  0  0  0  0  0  0  0
    0.8567    4.5354    0.0000 O   0  0  0  0  0  0  0  0  0  0  0  0
    3.4267    3.0236    0.0000 O   0  0  0  0  0  0  0  0  0  0  0  0
    2.5700    4.5354    0.0000 O   0  0  0  0  0  0  0  0  0  0  0  0
    4.2834    3.5275    0.0000 C   0  0  0  0  0  0  0  0  0  0  0  0
    5.1401    3.0236    0.0000 C   0  0  0  0  0  0  0  0  0  0  0  0
  2  1  2  0  0  0  0 
  1  3  1  0  0  0  0 
  4  2  1  0  0  0  0 
  3  5  2  0  0  0  0 
  6  4  2  0  0  0  0 
  5  6  1  0  0  0  0 
  6  7  1  0  0  0  0 
  7  8  1  0  0  0  0 
  8  9  1  0  0  0  0 
  8 10  1  0  0  0  0 
  9 11  1  0  0  0  0 
  9 12  2  0  0  0  0 
 10 13  1  0  0  0  0 
 10 14  2  0  0  0  0 
 15 13  1  0  0  0  0 
 16 15  1  0  0  0  0 
M  END
> <Name>
BENZYLACETOACETIC ACID, ETHYL ESTER

> <Source>
NIST2DMolFile

> <Tox>
-2.907

> <CAS>
620-79-1

$$$$

  CDK

 11 11  0  0  0  0  0  0  0  0999 V2000
    0.6651   -1.1573    0.0000 C   0  0  0  0  0  0  0  0  0  0  0  0
    1.9953   -1.1573    0.0000 C   0  0  0  0  0  0  0  0  0  0  0  0
    0.0000   -2.3079    0.0000 O   0  0  0  0  0  0  0  0  0  0  0  0
    0.0000   -0.0000    0.0000 O   0  0  0  0  0  0  0  0  0  0  0  0
    2.6605   -2.3079    0.0000 C   0  0  0  0  0  0  0  0  0  0  0  0
    3.9907   -2.3079    0.0000 C   0  0  0  0  0  0  0  0  0  0  0  0
    4.6558   -1.1573    0.0000 C   0  0  0  0  0  0  0  0  0  0  0  0
    4.6558   -3.4586    0.0000 C   0  0  0  0  0  0  0  0  0  0  0  0
    5.9860   -1.1573    0.0000 C   0  0  0  0  0  0  0  0  0  0  0  0
    5.9860   -3.4586    0.0000 C   0  0  0  0  0  0  0  0  0  0  0  0
    6.6511   -2.3079    0.0000 C   0  0  0  0  0  0  0  0  0  0  0  0
  1  2  1  0  0  0  0 
  1  3  2  0  0  0  0 
  1  4  1  0  0  0  0 
  2  5  2  0  0  0  0 
  5  6  1  0  0  0  0 
  6  7  1  0  0  0  0 
  6  8  2  0  0  0  0 
  7  9  2  0  0  0  0 
 10  8  1  0  0  0  0 
  9 11  1  0  0  0  0 
 11 10  2  0  0  0  0 
M  END
> <Name>
CINNAMIC ACID

> <Source>
DSSTox2DMolFile

> <Tox>
-4.301

> <CAS>
621-82-9

$$$$

  CDK

 11 11  0  0  0  0  0  0  0  0999 V2000
   -3.5690   -0.1634    0.5984 C   0  0  0  0  0  0  0  0  0  0  0  0
   -2.6191   -0.6420   -0.5097 C   0  0  0  0  0  0  0  0  0  0  0  0
   -3.7444    1.2265    0.6116 O   0  0  0  0  0  0  0  0  0  0  0  0
   -1.2997   -0.3437   -0.0805 O   0  0  0  0  0  0  0  0  0  0  0  0
   -0.3092   -0.6988   -1.0370 C   0  0  0  0  0  0  0  0  0  0  0  0
    1.0176   -0.2906   -0.4652 C   0  0  0  0  0  0  0  0  0  0  0  0
    1.7170   -1.1604    0.3716 C   0  0  0  0  0  0  0  0  0  0  0  0
    1.5584    0.9577   -0.7740 C   0  0  0  0  0  0  0  0  0  0  0  0
    2.9502   -0.7839    0.8921 C   0  0  0  0  0  0  0  0  0  0  0  0
    2.7922    1.3298   -0.2518 C   0  0  0  0  0  0  0  0  0  0  0  0
    3.4888    0.4601    0.5806 C   0  0  0  0  0  0  0  0  0  0  0  0
  1  2  1  0  0  0  0 
  1  3  1  0  0  0  0 
  2  4  1  0  0  0  0 
  4  5  1  0  0  0  0 
  5  6  1  0  0  0  0 
  6  7  1  0  0  0  0 
  6  8  2  0  0  0  0 
  7  9  2  0  0  0  0 
 10  8  1  0  0  0  0 
  9 11  1  0  0  0  0 
 11 10  2  0  0  0  0 
M  END
> <Name>
ETHYLENE GLYCOL MONOBENZYL ETHER

> <Source>
DougDB3DMolFile

> <Tox>
-1.699

> <CAS>
622-08-2

$$$$

  CDK

  9  9  0  0  0  0  0  0  0  0999 V2000
    0.0000    0.0000    0.0000 Cl  0  0  0  0  0  0  0  0  0  0  0  0
    0.5600    0.5000   -1.6200 C   0  0  0  0  0  0  0  0  0  0  0  0
   -0.6000    0.4200   -2.6000 C   0  0  0  0  0  0  0  0  0  0  0  0
   -1.2000   -0.9400   -2.6200 C   0  0  0  0  0  0  0  0  0  0  0  0
   -2.5600   -1.1200   -2.9200 C   0  0  0  0  0  0  0  0  0  0  0  0
   -0.4000   -2.0800   -2.3400 C   0  0  0  0  0  0  0  0  0  0  0  0
   -3.1400   -2.4000   -2.9400 C   0  0  0  0  0  0  0  0  0  0  0  0
   -0.9800   -3.3600   -2.3600 C   0  0  0  0  0  0  0  0  0  0  0  0
   -2.3400   -3.5200   -2.6600 C   0  0  0  0  0  0  0  0  0  0  0  0
  1  2  1  0  0  0  0 
  2  3  1  0  0  0  0 
  3  4  1  0  0  0  0 
  4  5  2  0  0  0  0 
  4  6  1  0  0  0  0 
  5  7  1  0  0  0  0 
  8  6  2  0  0  0  0 
  7  9  2  0  0  0  0 
  9  8  1  0  0  0  0 
M  END
> <Name>
B-PHENYL ETHYL CHLORIDE

> <Source>
NIH3DMolFile

> <Tox>
0.228

> <CAS>
622-24-2

$$$$

  CDK

 10 10  0  0  0  0  0  0  0  0999 V2000
   -2.2523   -0.0690   -0.1492 C   0  0  0  0  0  0  0  0  0  0  0  0
   -3.5074    0.4296    0.5118 C   0  0  0  0  0  0  0  0  0  0  0  0
   -2.1681   -0.8684   -1.0609 O   0  0  0  0  0  0  0  0  0  0  0  0
   -1.1281    0.4855    0.3885 O   0  0  0  0  0  0  0  0  0  0  0  0
    0.1615    0.1447   -0.1487 C   0  0  0  0  0  0  0  0  0  0  0  0
    1.0678    1.3396    0.1692 C   0  0  0  0  0  0  0  0  0  0  0  0
    0.6916   -1.1450    0.5006 C   0  0  0  0  0  0  0  0  0  0  0  0
    2.4494    1.1330   -0.4378 C   0  0  0  0  0  0  0  0  0  0  0  0
    2.2038   -1.1102    0.6779 C   0  0  0  0  0  0  0  0  0  0  0  0
    2.8791   -0.3298   -0.4358 C   0  0  0  0  0  0  0  0  0  0  0  0
  1  2  1  0  0  0  0 
  1  3  2  0  0  0  0 
  1  4  1  0  0  0  0 
  4  5  1  0  0  0  0 
  5  6  1  0  0  0  0 
  5  7  1  0  0  0  0 
  6  8  1  0  0  0  0 
  9  7  1  0  0  0  0 
  8 10  1  0  0  0  0 
 10  9  1  0  0  0  0 
M  END
> <Name>
CYCLOHEXYL ACETATE

> <Source>
DougDB3DMolFile

> <Tox>
1.033

> <CAS>
622-45-7

$$$$

  CDK

 10 10  0  0  0  0  0  0  0  0999 V2000
    7.3155   -2.3044    0.0000 S   0  0  0  0  0  0  0  0  0  0  0  0
    5.9841   -2.3044    0.0000 C   0  0  0  0  0  0  0  0  0  0  0  0
    4.6526   -2.3044    0.0000 N   0  0  0  0  0  0  0  0  0  0  0  0
    3.9869   -1.1558    0.0000 C   0  0  0  0  0  0  0  0  0  0  0  0
    2.6628   -1.1558    0.0000 C   0  0  0  0  0  0  0  0  0  0  0  0
    1.9971   -2.3044    0.0000 C   0  0  0  0  0  0  0  0  0  0  0  0
    1.9971   -0.0000    0.0000 C   0  0  0  0  0  0  0  0  0  0  0  0
    0.6657   -2.3044    0.0000 C   0  0  0  0  0  0  0  0  0  0  0  0
    0.6657   -0.0000    0.0000 C   0  0  0  0  0  0  0  0  0  0  0  0
    0.0000   -1.1558    0.0000 C   0  0  0  0  0  0  0  0  0  0  0  0
  1  2  2  0  0  0  0 
  2  3  2  0  0  0  0 
  3  4  1  0  0  0  0 
  4  5  1  0  0  0  0 
  5  6  2  0  0  0  0 
  5  7  1  0  0  0  0 
  6  8  1  0  0  0  0 
  9  7  2  0  0  0  0 
  8 10  2  0  0  0  0 
 10  9  1  0  0  0  0 
M  END
> <Name>
BENZYLISOTHIOCYANATE

> <Source>
DSSTox2DMolFile

> <Tox>
-1.815

> <CAS>
622-78-6

$$$$

  CDK

  9  9  0  0  0  0  0  0  0  0999 V2000
    0.0000   -0.0000    0.0000 C   0  0  0  0  0  0  0  0  0  0  0  0
    0.6638   -1.1542    0.0000 C   0  0  0  0  0  0  0  0  0  0  0  0
    1.9915   -1.1542    0.0000 C   0  0  0  0  0  0  0  0  0  0  0  0
    2.6554   -0.0000    0.0000 C   0  0  0  0  0  0  0  0  0  0  0  0
    2.6554   -2.3025    0.0000 C   0  0  0  0  0  0  0  0  0  0  0  0
    3.9890   -0.0000    0.0000 C   0  0  0  0  0  0  0  0  0  0  0  0
    3.9890   -2.3025    0.0000 C   0  0  0  0  0  0  0  0  0  0  0  0
    4.6529   -1.1542    0.0000 C   0  0  0  0  0  0  0  0  0  0  0  0
    5.9806   -1.1542    0.0000 C   0  0  0  0  0  0  0  0  0  0  0  0
  1  2  2  0  0  0  0 
  2  3  1  0  0  0  0 
  3  4  2  0  0  0  0 
  3  5  1  0  0  0  0 
  4  6  1  0  0  0  0 
  7  5  2  0  0  0  0 
  6  8  2  0  0  0  0 
  8  7  1  0  0  0  0 
  8  9  1  0  0  0  0 
M  END
> <Name>
P-METHYLSTYRENE

> <Source>
DSSTox2DMolFile

> <Tox>
0.258

> <CAS>
622-97-9

$$$$

  CDK

  7  6  0  0  0  0  0  0  0  0999 V2000
    1.7073    0.0000    0.0000 C   0  0  0  0  0  0  0  0  0  0  0  0
    2.6112    0.5022    0.0000 C   0  0  0  0  0  0  0  0  0  0  0  0
    0.8537    0.5022    0.0000 C   0  0  0  0  0  0  0  0  0  0  0  0
    3.4649    0.0000    0.0000 C   0  0  0  0  0  0  0  0  0  0  0  0
    2.6112    1.5065    0.0000 O   0  0  0  0  0  0  0  0  0  0  0  0
    0.0000    0.0000    0.0000 C   0  0  0  0  0  0  0  0  0  0  0  0
    4.3186    0.5022    0.0000 C   0  0  0  0  0  0  0  0  0  0  0  0
  1  2  1  0  0  0  0 
  1  3  1  0  0  0  0 
  2  4  1  0  0  0  0 
  2  5  1  0  0  0  0 
  3  6  1  0  0  0  0 
  4  7  1  0  0  0  0 
M  END
> <Name>
3-HEXANOL

> <Source>
NIST2DMolFile

> <Tox>
0.682

> <CAS>
623-37-0

$$$$

  CDK

  7  6  0  0  0  0  0  0  0  0999 V2000
   -1.2528   -1.1644   -0.0627 C   0  0  0  0  0  0  0  0  0  0  0  0
    0.1778   -1.3939   -0.4510 C   0  0  0  0  0  0  0  0  0  0  0  0
   -2.0475   -2.0185    0.2861 O   0  0  0  0  0  0  0  0  0  0  0  0
   -1.6442    0.1333   -0.1577 O   0  0  0  0  0  0  0  0  0  0  0  0
    1.2773    0.2289    0.0407 I   0  0  0  0  0  0  0  0  0  0  0  0
   -3.0132    0.4468    0.1251 C   0  0  0  0  0  0  0  0  0  0  0  0
   -3.1699    1.9377   -0.1012 C   0  0  0  0  0  0  0  0  0  0  0  0
  1  2  1  0  0  0  0 
  1  3  2  0  0  0  0 
  1  4  1  0  0  0  0 
  2  5  1  0  0  0  0 
  4  6  1  0  0  0  0 
  6  7  1  0  0  0  0 
M  END
> <Name>
ETHYL IODOACETATE

> <Source>
DougDB3DMolFile

> <Tox>
-0.195

> <CAS>
623-48-3

$$$$

  CDK

  8  7  0  0  0  0  0  0  0  0999 V2000
    0.0000    0.0000    0.0000 N   0  0  0  0  0  0  0  0  0  0  0  0
    0.9117    0.5065    0.0000 N   0  0  0  0  0  0  0  0  0  0  0  0
    1.7727    0.0000    0.0000 C   0  0  0  0  0  0  0  0  0  0  0  0
    2.6337    0.5065    0.0000 C   0  0  0  0  0  0  0  0  0  0  0  0
    3.4948    0.0000    0.0000 O   0  0  0  0  0  0  0  0  0  0  0  0
    2.6337    1.4688    0.0000 O   0  0  0  0  0  0  0  0  0  0  0  0
    4.3558    0.5065    0.0000 C   0  0  0  0  0  0  0  0  0  0  0  0
    5.2168    0.0000    0.0000 C   0  0  0  0  0  0  0  0  0  0  0  0
  1  2  3  0  0  0  0 
  2  3  2  0  0  0  0 
  3  4  1  0  0  0  0 
  4  5  1  0  0  0  0 
  4  6  2  0  0  0  0 
  5  7  1  0  0  0  0 
  7  8  1  0  0  0  0 
M  END
> <Name>
Diazoacetic Ester

> <Source>
NIST2DMolFile

> <Tox>
0.447

> <CAS>
623-73-4

$$$$

  CDK

  8  7  0  0  0  0  0  0  0  0999 V2000
    2.5986    0.0000    0.0000 C   0  0  0  0  0  0  0  0  0  0  0  0
    3.4482    0.4997    0.0000 C   0  0  0  0  0  0  0  0  0  0  0  0
    1.7491    0.4997    0.0000 C   0  0  0  0  0  0  0  0  0  0  0  0
    4.3477    0.0000    0.0000 O   0  0  0  0  0  0  0  0  0  0  0  0
    3.4482    1.4992    0.0000 O   0  0  0  0  0  0  0  0  0  0  0  0
    0.8495    0.0000    0.0000 C   0  0  0  0  0  0  0  0  0  0  0  0
    5.1972    0.4997    0.0000 C   0  0  0  0  0  0  0  0  0  0  0  0
    0.0000    0.4997    0.0000 C   0  0  0  0  0  0  0  0  0  0  0  0
  1  2  1  0  0  0  0 
  1  3  1  0  0  0  0 
  2  4  1  0  0  0  0 
  2  5  2  0  0  0  0 
  3  6  1  0  0  0  0 
  4  7  1  0  0  0  0 
  6  8  1  0  0  0  0 
M  END
> <Name>
METHYL VALERATE

> <Source>
NIST2DMolFile

> <Tox>
1.281

> <CAS>
624-24-8

$$$$

  CDK

 10  9  0  0  0  0  0  0  0  0999 V2000
   -1.4526   -0.2033   -0.3975 C   0  0  0  0  0  0  0  0  0  0  0  0
   -0.6463   -1.4376   -0.2085 C   0  0  0  0  0  0  0  0  0  0  0  0
   -2.5776   -0.1994    0.3791 O   0  0  0  0  0  0  0  0  0  0  0  0
   -1.2343    0.7204   -1.1548 O   0  0  0  0  0  0  0  0  0  0  0  0
    0.6425   -1.4568    0.1247 C   0  0  0  0  0  0  0  0  0  0  0  0
   -3.4308    0.9242    0.3228 C   0  0  0  0  0  0  0  0  0  0  0  0
    1.4644   -0.2490    0.4000 C   0  0  0  0  0  0  0  0  0  0  0  0
    2.5411   -0.1571   -0.4368 O   0  0  0  0  0  0  0  0  0  0  0  0
    1.2949    0.5834    1.2675 O   0  0  0  0  0  0  0  0  0  0  0  0
    3.3997    0.9566   -0.3094 C   0  0  0  0  0  0  0  0  0  0  0  0
  1  2  1  0  0  0  0 
  1  3  1  0  0  0  0 
  1  4  2  0  0  0  0 
  2  5  2  0  0  0  0 
  3  6  1  0  0  0  0 
  5  7  1  0  0  0  0 
  7  8  1  0  0  0  0 
  7  9  2  0  0  0  0 
  8 10  1  0  0  0  0 
M  END
> <Name>
METHYL MALEATE

> <Source>
DougDB3DMolFile

> <Tox>
-0.523

> <CAS>
624-48-6

$$$$

  CDK

 10  9  0  0  0  0  0  0  0  0999 V2000
    2.6069    1.5040    0.0000 O   0  0  0  0  0  0  0  0  0  0  0  0
    1.7045    1.0027    0.0000 C   0  0  0  0  0  0  0  0  0  0  0  0
    3.4592    1.0027    0.0000 C   0  0  0  0  0  0  0  0  0  0  0  0
    0.8523    1.5040    0.0000 C   0  0  0  0  0  0  0  0  0  0  0  0
    1.7045    0.0000    0.0000 O   0  0  0  0  0  0  0  0  0  0  0  0
    4.3115    1.5040    0.0000 C   0  0  0  0  0  0  0  0  0  0  0  0
    0.0000    1.0027    0.0000 C   0  0  0  0  0  0  0  0  0  0  0  0
    5.2139    1.0027    0.0000 C   0  0  0  0  0  0  0  0  0  0  0  0
    6.0661    1.5040    0.0000 C   0  0  0  0  0  0  0  0  0  0  0  0
    6.9184    1.0027    0.0000 C   0  0  0  0  0  0  0  0  0  0  0  0
  1  2  1  0  0  0  0 
  1  3  1  0  0  0  0 
  2  4  1  0  0  0  0 
  2  5  2  0  0  0  0 
  3  6  1  0  0  0  0 
  4  7  1  0  0  0  0 
  6  8  1  0  0  0  0 
  8  9  1  0  0  0  0 
  9 10  1  0  0  0  0 
M  END
> <Name>
AMYL PROPIONATE

> <Source>
NIST2DMolFile

> <Tox>
0.556

> <CAS>
624-54-4

$$$$

  CDK

  4  3  0  0  0  0  0  0  0  0999 V2000
    0.0000    0.0000    0.0000 F   0  0  0  0  0  0  0  0  0  0  0  0
    0.8838    0.4679    0.0000 C   0  0  0  0  0  0  0  0  0  0  0  0
    1.7676    0.0000    0.0000 C   0  0  0  0  0  0  0  0  0  0  0  0
    2.6514    0.4679    0.0000 F   0  0  0  0  0  0  0  0  0  0  0  0
  1  2  1  0  0  0  0 
  2  3  1  0  0  0  0 
  3  4  1  0  0  0  0 
M  END
> <Name>
1,2-DIFLUOROETHANE

> <Source>
NIST2DMolFile

> <Tox>
2.790

> <CAS>
624-72-6

$$$$

  CDK

  4  3  0  0  0  0  0  0  0  0999 V2000
    1.1513   -0.6638    0.0000 S   0  0  0  0  0  0  0  0  0  0  0  0
    0.0000   -0.0000    0.0000 C   0  0  0  0  0  0  0  0  0  0  0  0
    2.3061   -0.0000    0.0000 S   0  0  0  0  0  0  0  0  0  0  0  0
    3.4575   -0.6638    0.0000 C   0  0  0  0  0  0  0  0  0  0  0  0
  1  2  1  0  0  0  0 
  1  3  1  0  0  0  0 
  3  4  1  0  0  0  0 
M  END
> <Name>
DIMETHYLDISULFIDE

> <Source>
DSSTox2DMolFile

> <Tox>
1.458

> <CAS>
624-92-0

$$$$

  CDK

  7  6  0  0  0  0  0  0  0  0999 V2000
    1.7489    1.3492    0.0000 C   0  0  0  0  0  0  0  0  0  0  0  0
    0.8994    0.8495    0.0000 C   0  0  0  0  0  0  0  0  0  0  0  0
    2.5984    0.8495    0.0000 C   0  0  0  0  0  0  0  0  0  0  0  0
    0.3998    1.6989    0.0000 C   0  0  0  0  0  0  0  0  0  0  0  0
    1.3991    0.0000    0.0000 C   0  0  0  0  0  0  0  0  0  0  0  0
    0.0000    0.3498    0.0000 C   0  0  0  0  0  0  0  0  0  0  0  0
    3.4978    1.3492    0.0000 O   0  0  0  0  0  0  0  0  0  0  0  0
  1  2  1  0  0  0  0 
  1  3  1  0  0  0  0 
  2  4  1  0  0  0  0 
  2  5  1  0  0  0  0 
  2  6  1  0  0  0  0 
  3  7  1  0  0  0  0 
M  END
> <Name>
3,3-DIMETHYL-1-BUTANOL

> <Source>
NIST2DMolFile

> <Tox>
0.389

> <CAS>
624-95-3

$$$$

  CDK

  8  7  0  0  0  0  0  0  0  0999 V2000
    1.7320    1.4846    0.0000 C   0  0  0  0  0  0  0  0  0  0  0  0
    0.8907    0.9897    0.0000 C   0  0  0  0  0  0  0  0  0  0  0  0
    2.5733    1.0392    0.0000 C   0  0  0  0  0  0  0  0  0  0  0  0
    0.3959    1.8805    0.0000 C   0  0  0  0  0  0  0  0  0  0  0  0
    1.3856    0.1485    0.0000 C   0  0  0  0  0  0  0  0  0  0  0  0
    0.0000    0.4949    0.0000 N   0  0  0  0  0  0  0  0  0  0  0  0
    2.5733    0.0000    0.0000 C   0  0  0  0  0  0  0  0  0  0  0  0
    3.4640    1.5341    0.0000 O   0  0  0  0  0  0  0  0  0  0  0  0
  1  2  1  0  0  0  0 
  1  3  1  0  0  0  0 
  2  4  1  0  0  0  0 
  2  5  1  0  0  0  0 
  2  6  1  0  0  0  0 
  3  7  1  0  0  0  0 
  3  8  2  0  0  0  0 
M  END
> <Name>
Diacetonamine

> <Source>
NIST2DMolFile

> <Tox>
-0.699

> <CAS>
625-04-7

$$$$

  CDK

 13 12  0  0  0  0  0  0  0  0999 V2000
    0.0000    2.3646    0.0000 C   0  0  0  0  0  0  0  0  0  0  0  0
    1.0307    2.3646    0.0000 C   0  0  0  0  0  0  0  0  0  0  0  0
    1.6371    1.8190    0.0000 C   0  0  0  0  0  0  0  0  0  0  0  0
    2.7284    1.8190    0.0000 C   0  0  0  0  0  0  0  0  0  0  0  0
    3.3954    1.2126    0.0000 O   0  0  0  0  0  0  0  0  0  0  0  0
    4.4868    1.2126    0.0000 S   0  0  0  0  0  0  0  0  0  0  0  0
    5.5175    1.2126    0.0000 O   0  0  0  0  0  0  0  0  0  0  0  0
    4.4868    2.4253    0.0000 O   0  0  0  0  0  0  0  0  0  0  0  0
    4.4868    0.0000    0.0000 O   0  0  0  0  0  0  0  0  0  0  0  0
    6.1238    1.8190    0.0000 C   0  0  0  0  0  0  0  0  0  0  0  0
    7.2152    1.8190    0.0000 C   0  0  0  0  0  0  0  0  0  0  0  0
    7.8215    2.3646    0.0000 C   0  0  0  0  0  0  0  0  0  0  0  0
    8.6704    2.3646    0.0000 C   0  0  0  0  0  0  0  0  0  0  0  0
  1  2  1  0  0  0  0 
  2  3  1  0  0  0  0 
  3  4  1  0  0  0  0 
  4  5  1  0  0  0  0 
  5  6  1  0  0  0  0 
  6  7  1  0  0  0  0 
  6  8  2  0  0  0  0 
  6  9  2  0  0  0  0 
  7 10  1  0  0  0  0 
 10 11  1  0  0  0  0 
 12 11  1  0  0  0  0 
 13 12  1  0  0  0  0 
M  END
> <Name>
Sulfuric acid, dibutyl ester

> <Source>
NIST2DMolFile

> <Tox>
-1.928

> <CAS>
625-22-9

$$$$

  CDK

  8  7  0  0  0  0  0  0  0  0999 V2000
   -1.4803    0.9708    1.1942 C   0  0  0  0  0  0  0  0  0  0  0  0
   -1.4103    0.0010    0.0104 C   0  0  0  0  0  0  0  0  0  0  0  0
   -0.0649   -0.7623    0.0200 C   0  0  0  0  0  0  0  0  0  0  0  0
   -1.5508    0.8001   -1.1590 O   0  0  0  0  0  0  0  0  0  0  0  0
   -2.5623   -1.0115    0.0938 C   0  0  0  0  0  0  0  0  0  0  0  0
    1.1363    0.1598   -0.1086 C   0  0  0  0  0  0  0  0  0  0  0  0
    2.4396   -0.5879    0.1184 C   0  0  0  0  0  0  0  0  0  0  0  0
    3.6338    0.3270   -0.0326 C   0  0  0  0  0  0  0  0  0  0  0  0
  1  2  1  0  0  0  0 
  2  3  1  0  0  0  0 
  2  4  1  0  0  0  0 
  2  5  1  0  0  0  0 
  3  6  1  0  0  0  0 
  6  7  1  0  0  0  0 
  7  8  1  0  0  0  0 
M  END
> <Name>
2-METHYL-2-HEXANOL

> <Source>
DougDB3DMolFile

> <Tox>
0.316

> <CAS>
625-23-0

$$$$

  CDK

  6  5  0  0  0  0  0  0  0  0999 V2000
    2.9352    2.8860    2.1503 C   0  0  0  0  0  0  0  0  0  0  0  0
    3.9540    2.0146    2.1503 C   0  0  0  0  0  0  0  0  0  0  0  0
    1.4983    2.4962    2.1503 C   0  0  0  0  0  0  0  0  0  0  0  0
    5.3663    2.4795    2.1654 C   0  0  0  0  0  0  0  0  0  0  0  0
    3.7527    0.5417    2.1383 C   0  0  0  0  0  0  0  0  0  0  0  0
    1.0645    1.9477    0.8065 C   0  0  0  0  0  0  0  0  0  0  0  0
  1  2  2  0  0  0  0 
  1  3  1  0  0  0  0 
  2  4  1  0  0  0  0 
  2  5  1  0  0  0  0 
  3  6  1  0  0  0  0 
M  END
> <Name>
2-METHYL-2-PENTENE

> <Source>
NIST3DMolFile

> <Tox>
2.199

> <CAS>
625-27-4

$$$$

  CDK

  6  5  0  0  0  0  0  0  0  0999 V2000
    1.7391    1.4906    0.0000 C   0  0  0  0  0  0  0  0  0  0  0  0
    0.8944    0.9938    0.0000 C   0  0  0  0  0  0  0  0  0  0  0  0
    2.5838    0.9938    0.0000 O   0  0  0  0  0  0  0  0  0  0  0  0
    0.8944    0.0000    0.0000 C   0  0  0  0  0  0  0  0  0  0  0  0
    0.0000    1.4906    0.0000 C   0  0  0  0  0  0  0  0  0  0  0  0
    3.4781    1.4906    0.0000 C   0  0  0  0  0  0  0  0  0  0  0  0
  1  2  1  0  0  0  0 
  1  3  1  0  0  0  0 
  2  4  1  0  0  0  0 
  2  5  1  0  0  0  0 
  3  6  1  0  0  0  0 
M  END
> <Name>
METHYL ISOBUTYL ETHER

> <Source>
NIST2DMolFile

> <Tox>
2.324

> <CAS>
625-44-5

$$$$

  CDK

  6  5  0  0  0  0  0  0  0  0999 V2000
    3.4658   -1.3355    0.0000 C   0  0  0  0  0  0  0  0  0  0  0  0
    3.4658   -0.0000    0.0000 O   0  0  0  0  0  0  0  0  0  0  0  0
    4.6211   -1.9917    0.0000 O   0  0  0  0  0  0  0  0  0  0  0  0
    2.3105   -1.9917    0.0000 C   0  0  0  0  0  0  0  0  0  0  0  0
    1.1553   -1.3355    0.0000 O   0  0  0  0  0  0  0  0  0  0  0  0
    0.0000   -1.9917    0.0000 C   0  0  0  0  0  0  0  0  0  0  0  0
  1  2  2  0  0  0  0 
  1  3  1  0  0  0  0 
  1  4  1  0  0  0  0 
  4  5  1  0  0  0  0 
  5  6  1  0  0  0  0 
M  END
> <Name>
METHOXYACETIC ACID

> <Source>
DSSTox2DMolFile

> <Tox>
-0.839

> <CAS>
625-45-6

$$$$

  CDK

  6  5  0  0  0  0  0  0  0  0999 V2000
    1.3130   -2.3066    0.0000 C   0  0  0  0  0  0  0  0  0  0  0  0
    0.0000   -2.3066    0.0000 O   0  0  0  0  0  0  0  0  0  0  0  0
    1.9874   -1.1533    0.0000 O   0  0  0  0  0  0  0  0  0  0  0  0
    3.3323   -1.1533    0.0000 C   0  0  0  0  0  0  0  0  0  0  0  0
    3.9907   -0.0000    0.0000 C   0  0  0  0  0  0  0  0  0  0  0  0
    3.9907   -2.3066    0.0000 C   0  0  0  0  0  0  0  0  0  0  0  0
  1  2  2  0  0  0  0 
  1  3  1  0  0  0  0 
  3  4  1  0  0  0  0 
  4  5  1  0  0  0  0 
  4  6  1  0  0  0  0 
M  END
> <Name>
ISOPROPYL FORMATE

> <Source>
DSSTox2DMolFile

> <Tox>
2.140

> <CAS>
625-55-8

$$$$

  CDK

  7  6  0  0  0  0  0  0  0  0999 V2000
    1.7335    1.4859    0.0000 C   0  0  0  0  0  0  0  0  0  0  0  0
    0.8915    0.9906    0.0000 C   0  0  0  0  0  0  0  0  0  0  0  0
    2.5755    1.0401    0.0000 N   0  0  0  0  0  0  0  0  0  0  0  0
    0.8915    0.0000    0.0000 C   0  0  0  0  0  0  0  0  0  0  0  0
    0.0000    1.4859    0.0000 C   0  0  0  0  0  0  0  0  0  0  0  0
    2.5755    0.0000    0.0000 O   0  0  0  0  0  0  0  0  0  0  0  0
    3.4670    1.5354    0.0000 O   0  0  0  0  0  0  0  0  0  0  0  0
  1  2  1  0  0  0  0 
  1  3  1  0  0  0  0 
  2  4  1  0  0  0  0 
  2  5  1  0  0  0  0 
  3  6  2  0  0  0  0 
  3  7  2  0  0  0  0 
M  END
> <Name>
ISONITROBUTANE

> <Source>
NIST2DMolFile

> <Tox>
0.838

> <CAS>
625-74-1

$$$$

  CDK

  7  6  0  0  0  0  0  0  0  0999 V2000
    1.7409    1.4922    0.0000 S   0  0  0  0  0  0  0  0  0  0  0  0
    0.8953    0.9948    0.0000 C   0  0  0  0  0  0  0  0  0  0  0  0
    2.5864    0.9948    0.0000 C   0  0  0  0  0  0  0  0  0  0  0  0
    0.8953    0.0000    0.0000 C   0  0  0  0  0  0  0  0  0  0  0  0
    0.0000    1.4922    0.0000 C   0  0  0  0  0  0  0  0  0  0  0  0
    2.5864    0.0000    0.0000 C   0  0  0  0  0  0  0  0  0  0  0  0
    3.4818    1.4922    0.0000 C   0  0  0  0  0  0  0  0  0  0  0  0
  1  2  1  0  0  0  0 
  1  3  1  0  0  0  0 
  2  4  1  0  0  0  0 
  2  5  1  0  0  0  0 
  3  6  1  0  0  0  0 
  3  7  1  0  0  0  0 
M  END
> <Name>
2,4-DIMETHYL-3-THIAPENTANE

> <Source>
NIST2DMolFile

> <Tox>
1.283

> <CAS>
625-80-9

$$$$

  CDK

  7  7  0  0  0  0  0  0  0  0999 V2000
    2.3465    0.4493    0.0000 C   0  0  0  0  0  0  0  0  0  0  0  0
    1.5976    0.0000    0.0000 N   0  0  0  0  0  0  0  0  0  0  0  0
    2.3465    1.3979    0.0000 C   0  0  0  0  0  0  0  0  0  0  0  0
    3.0953    0.0000    0.0000 C   0  0  0  0  0  0  0  0  0  0  0  0
    0.7988    0.4992    0.0000 C   0  0  0  0  0  0  0  0  0  0  0  0
    0.7988    1.3979    0.0000 C   0  0  0  0  0  0  0  0  0  0  0  0
    0.0000    0.0499    0.0000 C   0  0  0  0  0  0  0  0  0  0  0  0
  1  2  1  0  0  0  0 
  3  1  2  0  0  0  0 
  1  4  1  0  0  0  0 
  2  5  1  0  0  0  0 
  6  3  1  0  0  0  0 
  5  6  2  0  0  0  0 
  5  7  1  0  0  0  0 
M  END
> <Name>
2,5-DIMETHYLPYRROLE

> <Source>
NIST2DMolFile

> <Tox>
-0.094

> <CAS>
625-84-3

$$$$

  CDK

  9  9  0  0  0  0  0  0  0  0999 V2000
    0.8996    0.4998    0.0000 C   0  0  0  0  0  0  0  0  0  0  0  0
    0.0000    0.0000    0.0000 Br  0  0  0  0  0  0  0  0  0  0  0  0
    1.7493    0.0000    0.0000 C   0  0  0  0  0  0  0  0  0  0  0  0
    0.8996    1.4994    0.0000 C   0  0  0  0  0  0  0  0  0  0  0  0
    2.5989    0.4998    0.0000 C   0  0  0  0  0  0  0  0  0  0  0  0
    1.7493    1.9992    0.0000 C   0  0  0  0  0  0  0  0  0  0  0  0
    3.4985    0.0000    0.0000 Br  0  0  0  0  0  0  0  0  0  0  0  0
    2.5989    1.4994    0.0000 C   0  0  0  0  0  0  0  0  0  0  0  0
    1.7493    2.9988    0.0000 Br  0  0  0  0  0  0  0  0  0  0  0  0
  1  2  1  0  0  0  0 
  3  1  2  0  0  0  0 
  1  4  1  0  0  0  0 
  5  3  1  0  0  0  0 
  4  6  2  0  0  0  0 
  5  7  1  0  0  0  0 
  8  5  2  0  0  0  0 
  6  8  1  0  0  0  0 
  6  9  1  0  0  0  0 
M  END
> <Name>
1,3,5-TRIBROMOBENZENE

> <Source>
NIST2DMolFile

> <Tox>
-2.824

> <CAS>
626-39-1

$$$$

  CDK

  7  7  0  0  0  0  0  0  0  0999 V2000
    0.0000    1.4855    0.0000 C   0  0  0  0  0  0  0  0  0  0  0  0
    0.8708    1.9977    0.0000 N   0  0  0  0  0  0  0  0  0  0  0  0
    0.0000    0.5122    0.0000 C   0  0  0  0  0  0  0  0  0  0  0  0
    1.7416    1.4855    0.0000 C   0  0  0  0  0  0  0  0  0  0  0  0
    0.8708    0.0000    0.0000 C   0  0  0  0  0  0  0  0  0  0  0  0
    1.7928    0.5122    0.0000 C   0  0  0  0  0  0  0  0  0  0  0  0
    2.6124    0.0000    0.0000 Br  0  0  0  0  0  0  0  0  0  0  0  0
  1  2  2  0  0  0  0 
  3  1  1  0  0  0  0 
  2  4  1  0  0  0  0 
  5  3  2  0  0  0  0 
  4  6  2  0  0  0  0 
  6  5  1  0  0  0  0 
  6  7  1  0  0  0  0 
M  END
> <Name>
3-BROMOPYRIDINE

> <Source>
NIST2DMolFile

> <Tox>
0.243

> <CAS>
626-55-1

$$$$

  CDK

  7  7  0  0  0  0  0  0  0  0999 V2000
    1.4933    1.7422    0.0000 C   0  0  0  0  0  0  0  0  0  0  0  0
    2.4888    1.7422    0.0000 C   0  0  0  0  0  0  0  0  0  0  0  0
    0.9955    0.8960    0.0000 N   0  0  0  0  0  0  0  0  0  0  0  0
    2.9866    0.8960    0.0000 C   0  0  0  0  0  0  0  0  0  0  0  0
    1.4933    0.0000    0.0000 C   0  0  0  0  0  0  0  0  0  0  0  0
    0.0000    0.8960    0.0000 C   0  0  0  0  0  0  0  0  0  0  0  0
    2.4888    0.0000    0.0000 C   0  0  0  0  0  0  0  0  0  0  0  0
  2  1  1  0  0  0  0 
  1  3  1  0  0  0  0 
  4  2  1  0  0  0  0 
  3  5  1  0  0  0  0 
  3  6  1  0  0  0  0 
  7  4  1  0  0  0  0 
  5  7  1  0  0  0  0 
M  END
> <Name>
N-METHYLPIPERIDINE

> <Source>
NIST2DMolFile

> <Tox>
1.288

> <CAS>
626-67-5

$$$$

  CDK

  7  6  0  0  0  0  0  0  0  0999 V2000
    2.7514    0.9018   -0.0924 C   0  0  0  0  0  0  0  0  0  0  0  0
    1.5708   -0.0386   -0.3362 C   0  0  0  0  0  0  0  0  0  0  0  0
    0.2847    0.5432    0.2668 C   0  0  0  0  0  0  0  0  0  0  0  0
    1.7818   -1.3025    0.2696 O   0  0  0  0  0  0  0  0  0  0  0  0
   -0.9602   -0.1540   -0.2571 C   0  0  0  0  0  0  0  0  0  0  0  0
   -2.2221    0.4559    0.3331 C   0  0  0  0  0  0  0  0  0  0  0  0
   -3.4639   -0.2324   -0.1869 C   0  0  0  0  0  0  0  0  0  0  0  0
  1  2  1  0  0  0  0 
  2  3  1  0  0  0  0 
  2  4  1  0  0  0  0 
  3  5  1  0  0  0  0 
  5  6  1  0  0  0  0 
  6  7  1  0  0  0  0 
M  END
> <Name>
2-HEXANOL

> <Source>
DougDB3DMolFile

> <Tox>
0.396

> <CAS>
626-93-7

$$$$

  CDK

  7  6  0  0  0  0  0  0  0  0999 V2000
    0.0000   -1.9878    0.0000 O   0  0  0  0  0  0  0  0  0  0  0  0
    1.1466   -1.3194    0.0000 N   0  0  0  0  0  0  0  0  0  0  0  0
    1.1466   -0.0000    0.0000 O   0  0  0  0  0  0  0  0  0  0  0  0
    2.3046   -1.9878    0.0000 C   0  0  0  0  0  0  0  0  0  0  0  0
    3.4570   -1.3194    0.0000 C   0  0  0  0  0  0  0  0  0  0  0  0
    4.6150   -1.9878    0.0000 C   0  0  0  0  0  0  0  0  0  0  0  0
    5.7616   -1.3194    0.0000 C   0  0  0  0  0  0  0  0  0  0  0  0
  1  2  1  0  0  0  0 
  2  3  2  0  0  0  0 
  2  4  1  0  0  0  0 
  4  5  1  0  0  0  0 
  5  6  1  0  0  0  0 
  6  7  1  0  0  0  0 
M  CHG  1   1  -1
M  CHG  1   2   1
M  END
> <Name>
1-NITROBUTANE

> <Source>
DSSTox2DMolFile

> <Tox>
0.579

> <CAS>
627-05-4

$$$$

  CDK

  7  6  0  0  0  0  0  0  0  0999 V2000
    0.0000    0.0000    0.0000 N   0  0  0  0  0  0  0  0  0  0  0  0
    0.9038    0.5021    0.0000 C   0  0  0  0  0  0  0  0  0  0  0  0
    1.7072    0.0000    0.0000 O   0  0  0  0  0  0  0  0  0  0  0  0
    0.9038    1.5063    0.0000 O   0  0  0  0  0  0  0  0  0  0  0  0
    2.5607    0.5021    0.0000 C   0  0  0  0  0  0  0  0  0  0  0  0
    3.4645    0.0000    0.0000 C   0  0  0  0  0  0  0  0  0  0  0  0
    4.3181    0.5021    0.0000 C   0  0  0  0  0  0  0  0  0  0  0  0
  1  2  1  0  0  0  0 
  2  3  1  0  0  0  0 
  2  4  2  0  0  0  0 
  3  5  1  0  0  0  0 
  5  6  1  0  0  0  0 
  6  7  1  0  0  0  0 
M  END
> <Name>
O-PROPYLCARBAMATE

> <Source>
NIST2DMolFile

> <Tox>
-1.257

> <CAS>
627-12-3

$$$$

  CDK

  7  6  0  0  0  0  0  0  0  0999 V2000
    0.0000    1.0116    0.0000 C   0  0  0  0  0  0  0  0  0  0  0  0
    0.8598    1.5173    0.0000 C   0  0  0  0  0  0  0  0  0  0  0  0
    1.7197    1.0116    0.0000 C   0  0  0  0  0  0  0  0  0  0  0  0
    2.5289    1.5173    0.0000 O   0  0  0  0  0  0  0  0  0  0  0  0
    3.4393    1.0116    0.0000 N   0  0  0  0  0  0  0  0  0  0  0  0
    4.2991    1.5173    0.0000 O   0  0  0  0  0  0  0  0  0  0  0  0
    3.4393    0.0000    0.0000 O   0  0  0  0  0  0  0  0  0  0  0  0
  1  2  1  0  0  0  0 
  2  3  1  0  0  0  0 
  3  4  1  0  0  0  0 
  4  5  1  0  0  0  0 
  5  6  2  0  0  0  0 
  5  7  2  0  0  0  0 
M  END
> <Name>
1-PROPYLNITRATE

> <Source>
NIST2DMolFile

> <Tox>
1.371

> <CAS>
627-13-4

$$$$

  CDK

  5  4  0  0  0  0  0  0  0  0999 V2000
    1.0025    1.7924    2.1450 C   0  0  0  0  0  0  0  0  0  0  0  0
    2.0183    0.6555    2.1450 C   0  0  0  0  0  0  0  0  0  0  0  0
    0.9650    2.5282    0.8249 C   0  0  0  0  0  0  0  0  0  0  0  0
    3.3771    1.1334    2.1450 C   0  0  0  0  0  0  0  0  0  0  0  0
    4.5038    1.5209    2.1488 C   0  0  0  0  0  0  0  0  0  0  0  0
  1  2  1  0  0  0  0 
  1  3  1  0  0  0  0 
  2  4  1  0  0  0  0 
  4  5  3  0  0  0  0 
M  END
> <Name>
1-PENTYNE

> <Source>
NIST3DMolFile

> <Tox>
2.639

> <CAS>
627-19-0

$$$$

  CDK

  5  4  0  0  0  0  0  0  0  0999 V2000
    1.9921    3.1603    2.3822 C   0  0  0  0  0  0  0  0  0  0  0  0
    0.4927    3.3464    2.3049 C   0  0  0  0  0  0  0  0  0  0  0  0
    2.3501    1.7526    2.7022 C   0  0  0  0  0  0  0  0  0  0  0  0
    3.2486    1.0300    2.0303 C   0  0  0  0  0  0  0  0  0  0  0  0
    4.0128    1.5142    0.8600 C   0  0  0  0  0  0  0  0  0  0  0  0
  1  2  1  0  0  0  0 
  1  3  1  0  0  0  0 
  3  4  2  0  0  0  0 
  4  5  1  0  0  0  0 
M  END
> <Name>
CIS-2-PENTENE

> <Source>
NIST3DMolFile

> <Tox>
2.695

> <CAS>
627-20-3

$$$$

  CDK

  5  4  0  0  0  0  0  0  0  0999 V2000
    4.4921    0.7528    1.0005 C   0  0  0  0  0  0  0  0  0  0  0  0
    3.0606    0.8654    1.0976 C   0  0  0  0  0  0  0  0  0  0  0  0
    5.1786    2.0842    1.2325 C   0  0  0  0  0  0  0  0  0  0  0  0
    1.8743    0.9587    1.1781 C   0  0  0  0  0  0  0  0  0  0  0  0
    0.4502    1.0708    1.2744 C   0  0  0  0  0  0  0  0  0  0  0  0
  1  2  1  0  0  0  0 
  1  3  1  0  0  0  0 
  2  4  3  0  0  0  0 
  4  5  1  0  0  0  0 
M  END
> <Name>
2-PENTYNE

> <Source>
NIST3DMolFile

> <Tox>
2.373

> <CAS>
627-21-4

$$$$

  CDK

  8  7  0  0  0  0  0  0  0  0999 V2000
    1.7063    1.5056    0.0000 C   0  0  0  0  0  0  0  0  0  0  0  0
    2.6096    1.0037    0.0000 C   0  0  0  0  0  0  0  0  0  0  0  0
    0.8531    1.0037    0.0000 C   0  0  0  0  0  0  0  0  0  0  0  0
    3.4628    1.5056    0.0000 C   0  0  0  0  0  0  0  0  0  0  0  0
    0.8531    0.0000    0.0000 C   0  0  0  0  0  0  0  0  0  0  0  0
    0.0000    1.5056    0.0000 C   0  0  0  0  0  0  0  0  0  0  0  0
    3.4628    2.5093    0.0000 C   0  0  0  0  0  0  0  0  0  0  0  0
    4.3159    1.0037    0.0000 O   0  0  0  0  0  0  0  0  0  0  0  0
  1  2  1  0  0  0  0 
  1  3  1  0  0  0  0 
  2  4  1  0  0  0  0 
  3  5  1  0  0  0  0 
  3  6  1  0  0  0  0 
  4  7  1  0  0  0  0 
  4  8  1  0  0  0  0 
M  END
> <Name>
5-METHYL-2-HEXANOL

> <Source>
NIST2DMolFile

> <Tox>
0.307

> <CAS>
627-59-8

$$$$

  CDK

  8  7  0  0  0  0  0  0  0  0999 V2000
    5.7539   -1.3292    0.0000 Cl  0  0  0  0  0  0  0  0  0  0  0  0
    4.6031   -1.9966    0.0000 C   0  0  0  0  0  0  0  0  0  0  0  0
    3.4524   -1.3292    0.0000 C   0  0  0  0  0  0  0  0  0  0  0  0
    4.6031   -3.3258    0.0000 O   0  0  0  0  0  0  0  0  0  0  0  0
    2.3016   -1.9966    0.0000 C   0  0  0  0  0  0  0  0  0  0  0  0
    1.1508   -1.3292    0.0000 C   0  0  0  0  0  0  0  0  0  0  0  0
    0.0000   -1.9966    0.0000 Cl  0  0  0  0  0  0  0  0  0  0  0  0
    1.1508   -0.0000    0.0000 O   0  0  0  0  0  0  0  0  0  0  0  0
  1  2  1  0  0  0  0 
  2  3  1  0  0  0  0 
  2  4  2  0  0  0  0 
  5  3  2  0  0  0  0 
  6  5  1  0  0  0  0 
  7  6  1  0  0  0  0 
  6  8  2  0  0  0  0 
M  END
> <Name>
FUMARYL CHLORIDE

> <Source>
DSSTox2DMolFile

> <Tox>
0.316

> <CAS>
627-63-4

$$$$

  CDK

  8  7  0  0  0  0  0  0  0  0999 V2000
    0.7202    1.2434    1.2843 C   0  0  0  0  0  0  0  0  0  0  0  0
    2.0180    1.4773    2.0215 C   0  0  0  0  0  0  0  0  0  0  0  0
    2.6745    2.7858    1.6077 C   0  0  0  0  0  0  0  0  0  0  0  0
    4.0541    2.9480    2.2305 C   0  0  0  0  0  0  0  0  0  0  0  0
    4.9906    1.8880    1.7722 C   0  0  0  0  0  0  0  0  0  0  0  0
    6.2784    2.0910    1.4658 C   0  0  0  0  0  0  0  0  0  0  0  0
    7.1531    0.9707    1.0274 C   0  0  0  0  0  0  0  0  0  0  0  0
    6.9332    3.4231    1.5363 C   0  0  0  0  0  0  0  0  0  0  0  0
  1  2  1  0  0  0  0 
  2  3  1  0  0  0  0 
  3  4  1  0  0  0  0 
  4  5  1  0  0  0  0 
  5  6  2  0  0  0  0 
  6  7  1  0  0  0  0 
  6  8  1  0  0  0  0 
M  END
> <Name>
2-METHYL-2-HEPTENE

> <Source>
NIST3DMolFile

> <Tox>
1.250

> <CAS>
627-97-4

$$$$

  CDK

  6  5  0  0  0  0  0  0  0  0999 V2000
    2.2548    1.9822    1.5881 C   0  0  0  0  0  0  0  0  0  0  0  0
    1.0972    1.3579    2.1085 O   0  0  0  0  0  0  0  0  0  0  0  0
    3.5314    1.1732    1.8120 C   0  0  0  0  0  0  0  0  0  0  0  0
    0.9521    1.4378    3.5038 C   0  0  0  0  0  0  0  0  0  0  0  0
    4.7021    1.8116    1.0837 C   0  0  0  0  0  0  0  0  0  0  0  0
    5.9797    1.0327    1.3010 C   0  0  0  0  0  0  0  0  0  0  0  0
  1  2  1  0  0  0  0 
  1  3  1  0  0  0  0 
  2  4  1  0  0  0  0 
  3  5  1  0  0  0  0 
  5  6  1  0  0  0  0 
M  END
> <Name>
METHYL N-BUTYL ETHER

> <Source>
NIST3DMolFile

> <Tox>
2.143

> <CAS>
628-28-4

$$$$

  CDK

  6  5  0  0  0  0  0  0  0  0999 V2000
    0.0000   -0.6630    0.0000 O   0  0  0  0  0  0  0  0  0  0  0  0
    1.1530   -0.0000    0.0000 C   0  0  0  0  0  0  0  0  0  0  0  0
    2.3060   -0.6630    0.0000 N   0  0  0  0  0  0  0  0  0  0  0  0
    3.4590   -0.0000    0.0000 N   0  0  0  0  0  0  0  0  0  0  0  0
    4.6119   -0.6630    0.0000 C   0  0  0  0  0  0  0  0  0  0  0  0
    5.7649   -0.0000    0.0000 O   0  0  0  0  0  0  0  0  0  0  0  0
  1  2  2  0  0  0  0 
  2  3  1  0  0  0  0 
  3  4  1  0  0  0  0 
  4  5  1  0  0  0  0 
  5  6  2  0  0  0  0 
M  END
> <Name>
DIFORMYLHYDRAZINE

> <Source>
DSSTox2DMolFile

> <Tox>
-6.126

> <CAS>
628-36-4

$$$$

  CDK

  9  8  0  0  0  0  0  0  0  0999 V2000
    1.7492    1.4993    0.0000 C   0  0  0  0  0  0  0  0  0  0  0  0
    2.5988    0.9995    0.0000 O   0  0  0  0  0  0  0  0  0  0  0  0
    0.8496    0.9995    0.0000 C   0  0  0  0  0  0  0  0  0  0  0  0
    3.4484    1.4993    0.0000 C   0  0  0  0  0  0  0  0  0  0  0  0
    0.8496    0.0000    0.0000 C   0  0  0  0  0  0  0  0  0  0  0  0
    0.0000    1.4993    0.0000 C   0  0  0  0  0  0  0  0  0  0  0  0
    4.3480    0.9995    0.0000 C   0  0  0  0  0  0  0  0  0  0  0  0
    4.3480    0.0000    0.0000 C   0  0  0  0  0  0  0  0  0  0  0  0
    5.1976    1.4993    0.0000 C   0  0  0  0  0  0  0  0  0  0  0  0
  1  2  1  0  0  0  0 
  1  3  1  0  0  0  0 
  2  4  1  0  0  0  0 
  3  5  1  0  0  0  0 
  3  6  1  0  0  0  0 
  4  7  1  0  0  0  0 
  7  8  1  0  0  0  0 
  7  9  1  0  0  0  0 
M  END
> <Name>
DI-ISOBUTYL ETHER

> <Source>
NIST2DMolFile

> <Tox>
1.188

> <CAS>
628-55-7

$$$$

  CDK

  9  8  0  0  0  0  0  0  0  0999 V2000
    1.7427    1.4938    0.0000 C   0  0  0  0  0  0  0  0  0  0  0  0
    2.5892    0.9959    0.0000 C   0  0  0  0  0  0  0  0  0  0  0  0
    0.8963    0.9959    0.0000 C   0  0  0  0  0  0  0  0  0  0  0  0
    3.4855    1.4938    0.0000 C   0  0  0  0  0  0  0  0  0  0  0  0
    0.8963    0.0000    0.0000 C   0  0  0  0  0  0  0  0  0  0  0  0
    0.0000    1.4938    0.0000 Cl  0  0  0  0  0  0  0  0  0  0  0  0
    4.3320    0.9959    0.0000 C   0  0  0  0  0  0  0  0  0  0  0  0
    5.1784    1.4938    0.0000 C   0  0  0  0  0  0  0  0  0  0  0  0
    6.0747    0.9959    0.0000 C   0  0  0  0  0  0  0  0  0  0  0  0
  1  2  1  0  0  0  0 
  1  3  1  0  0  0  0 
  2  4  1  0  0  0  0 
  3  5  1  0  0  0  0 
  3  6  1  0  0  0  0 
  4  7  1  0  0  0  0 
  7  8  1  0  0  0  0 
  8  9  1  0  0  0  0 
M  END
> <Name>
2-CHLOROOCTANE

> <Source>
NIST2DMolFile

> <Tox>
0.137

> <CAS>
628-61-5

$$$$

  CDK

  7  6  0  0  0  0  0  0  0  0999 V2000
    5.8645    1.7462    0.9088 C   0  0  0  0  0  0  0  0  0  0  0  0
    4.4729    1.1344    0.9088 C   0  0  0  0  0  0  0  0  0  0  0  0
    6.9407    0.6725    0.8925 C   0  0  0  0  0  0  0  0  0  0  0  0
    3.4016    2.2186    0.9088 C   0  0  0  0  0  0  0  0  0  0  0  0
    8.3261    1.2779    0.9027 C   0  0  0  0  0  0  0  0  0  0  0  0
    2.0778    1.6519    0.9068 C   0  0  0  0  0  0  0  0  0  0  0  0
    0.9805    1.1883    0.9051 C   0  0  0  0  0  0  0  0  0  0  0  0
  1  2  1  0  0  0  0 
  1  3  1  0  0  0  0 
  2  4  1  0  0  0  0 
  3  5  1  0  0  0  0 
  4  6  1  0  0  0  0 
  6  7  3  0  0  0  0 
M  END
> <Name>
1-HEPTYNE

> <Source>
NIST3DMolFile

> <Tox>
1.720

> <CAS>
628-71-7

$$$$

  CDK

  7  6  0  0  0  0  0  0  0  0999 V2000
    0.0000    0.0000    0.0000 C   0  0  0  0  0  0  0  0  0  0  0  0
    0.8556    0.5033    0.0000 C   0  0  0  0  0  0  0  0  0  0  0  0
    1.7111    0.0000    0.0000 C   0  0  0  0  0  0  0  0  0  0  0  0
    2.5667    0.5033    0.0000 C   0  0  0  0  0  0  0  0  0  0  0  0
    3.4726    0.0000    0.0000 C   0  0  0  0  0  0  0  0  0  0  0  0
    4.2778    0.5033    0.0000 C   0  0  0  0  0  0  0  0  0  0  0  0
    5.1837    1.0065    0.0000 N   0  0  0  0  0  0  0  0  0  0  0  0
  1  2  1  0  0  0  0 
  2  3  1  0  0  0  0 
  3  4  1  0  0  0  0 
  4  5  1  0  0  0  0 
  5  6  1  0  0  0  0 
  6  7  3  0  0  0  0 
M  END
> <Name>
HEXANENITRILE

> <Source>
NIST2DMolFile

> <Tox>
0.455

> <CAS>
628-73-9

$$$$

  CDK

  7  6  0  0  0  0  0  0  0  0999 V2000
    0.0000   -0.6638    0.0000 Cl  0  0  0  0  0  0  0  0  0  0  0  0
    1.1548   -0.0000    0.0000 C   0  0  0  0  0  0  0  0  0  0  0  0
    2.3027   -0.6638    0.0000 C   0  0  0  0  0  0  0  0  0  0  0  0
    3.4575   -0.0000    0.0000 C   0  0  0  0  0  0  0  0  0  0  0  0
    4.6122   -0.6638    0.0000 C   0  0  0  0  0  0  0  0  0  0  0  0
    5.7601   -0.0000    0.0000 C   0  0  0  0  0  0  0  0  0  0  0  0
    6.9149   -0.6638    0.0000 Cl  0  0  0  0  0  0  0  0  0  0  0  0
  1  2  1  0  0  0  0 
  2  3  1  0  0  0  0 
  3  4  1  0  0  0  0 
  4  5  1  0  0  0  0 
  5  6  1  0  0  0  0 
  6  7  1  0  0  0  0 
M  END
> <Name>
1,5-DICHLOROPENTANE

> <Source>
DSSTox2DMolFile

> <Tox>
0.053

> <CAS>
628-76-2

$$$$

  CDK

  7  6  0  0  0  0  0  0  0  0999 V2000
   -0.0003    0.0530   -0.0061 N   0  0  0  0  0  0  0  0  0  0  0  0
   -1.2329   -0.7779    0.0060 C   0  0  0  0  0  0  0  0  0  0  0  0
    1.2326   -0.7773    0.0028 C   0  0  0  0  0  0  0  0  0  0  0  0
   -2.4038    0.0790   -0.0071 C   0  0  0  0  0  0  0  0  0  0  0  0
    2.4036    0.0796   -0.0076 C   0  0  0  0  0  0  0  0  0  0  0  0
   -3.3448    0.7543   -0.0206 N   0  0  0  0  0  0  0  0  0  0  0  0
    3.3456    0.7535   -0.0189 N   0  0  0  0  0  0  0  0  0  0  0  0
  1  2  1  0  0  0  0 
  1  3  1  0  0  0  0 
  4  2  1  0  0  0  0 
  5  3  1  0  0  0  0 
  4  6  3  0  0  0  0 
  5  7  3  0  0  0  0 
M  END
> <Name>
Acetonitrile, 2,2'-iminobis-

> <Source>
DougDB3DMolFile

> <Tox>
-2.467

> <CAS>
628-87-5

$$$$

  CDK

 10  9  0  0  0  0  0  0  0  0999 V2000
    3.4302   -2.0003    0.0000 C   0  0  0  0  0  0  0  0  0  0  0  0
    4.5870   -1.3255    0.0000 C   0  0  0  0  0  0  0  0  0  0  0  0
    2.2975   -1.3255    0.0000 O   0  0  0  0  0  0  0  0  0  0  0  0
    5.7357   -2.0003    0.0000 O   0  0  0  0  0  0  0  0  0  0  0  0
    1.1487   -2.0003    0.0000 N   0  0  0  0  0  0  0  0  0  0  0  0
    6.8845   -1.3255    0.0000 N   0  0  0  0  0  0  0  0  0  0  0  0
    0.0000   -1.3255    0.0000 O   0  0  0  0  0  0  0  0  0  0  0  0
    1.1487   -3.3257    0.0000 O   0  0  0  0  0  0  0  0  0  0  0  0
    8.0332   -2.0003    0.0000 O   0  0  0  0  0  0  0  0  0  0  0  0
    6.8845   -0.0000    0.0000 O   0  0  0  0  0  0  0  0  0  0  0  0
  1  2  1  0  0  0  0 
  1  3  1  0  0  0  0 
  2  4  1  0  0  0  0 
  3  5  1  0  0  0  0 
  4  6  1  0  0  0  0 
  5  7  1  0  0  0  0 
  5  8  2  0  0  0  0 
  6  9  1  0  0  0  0 
  6 10  2  0  0  0  0 
M  CHG  1   5   1
M  CHG  1   6   1
M  CHG  1   7  -1
M  CHG  1   9  -1
M  END
> <Name>
ETHYLENE GLYCOL DINITRATE

> <Source>
DSSTox2DMolFile

> <Tox>
-1.143

> <CAS>
628-96-6

$$$$

  CDK

 20 19  0  0  0  0  0  0  0  0999 V2000
    0.8567    0.9071    0.0000 C   0  0  0  0  0  0  0  0  0  0  0  0
    1.7134    1.4110    0.0000 C   0  0  0  0  0  0  0  0  0  0  0  0
    0.0000    1.4110    0.0000 C   0  0  0  0  0  0  0  0  0  0  0  0
    2.6204    0.9575    0.0000 C   0  0  0  0  0  0  0  0  0  0  0  0
    3.4771    1.4614    0.0000 C   0  0  0  0  0  0  0  0  0  0  0  0
    4.2834    0.9575    0.0000 C   0  0  0  0  0  0  0  0  0  0  0  0
    5.1905    1.4614    0.0000 C   0  0  0  0  0  0  0  0  0  0  0  0
    6.0472    0.9575    0.0000 C   0  0  0  0  0  0  0  0  0  0  0  0
    6.9039    1.4614    0.0000 C   0  0  0  0  0  0  0  0  0  0  0  0
    7.7606    0.9575    0.0000 C   0  0  0  0  0  0  0  0  0  0  0  0
    8.6676    1.4614    0.0000 C   0  0  0  0  0  0  0  0  0  0  0  0
    9.5243    0.9575    0.0000 C   0  0  0  0  0  0  0  0  0  0  0  0
   10.3810    1.4614    0.0000 C   0  0  0  0  0  0  0  0  0  0  0  0
   11.2881    0.9575    0.0000 C   0  0  0  0  0  0  0  0  0  0  0  0
   12.1448    1.4614    0.0000 C   0  0  0  0  0  0  0  0  0  0  0  0
   13.0015    0.9575    0.0000 C   0  0  0  0  0  0  0  0  0  0  0  0
   13.9085    1.4614    0.0000 O   0  0  0  0  0  0  0  0  0  0  0  0
   13.0015    0.0000    0.0000 O   0  0  0  0  0  0  0  0  0  0  0  0
   14.7652    0.9575    0.0000 C   0  0  0  0  0  0  0  0  0  0  0  0
   15.6219    1.4614    0.0000 C   0  0  0  0  0  0  0  0  0  0  0  0
  1  2  1  0  0  0  0 
  1  3  1  0  0  0  0 
  2  4  1  0  0  0  0 
  4  5  1  0  0  0  0 
  5  6  1  0  0  0  0 
  6  7  1  0  0  0  0 
  7  8  1  0  0  0  0 
  8  9  1  0  0  0  0 
  9 10  1  0  0  0  0 
 10 11  1  0  0  0  0 
 11 12  1  0  0  0  0 
 12 13  1  0  0  0  0 
 13 14  1  0  0  0  0 
 14 15  1  0  0  0  0 
 15 16  1  0  0  0  0 
 16 17  1  0  0  0  0 
 16 18  2  0  0  0  0 
 17 19  1  0  0  0  0 
 19 20  1  0  0  0  0 
M  END
> <Name>
ETHYL PALMITATE

> <Source>
NIST2DMolFile

> <Tox>
-4.631

> <CAS>
628-97-7

$$$$

  CDK

 10  9  0  0  0  0  0  0  0  0999 V2000
    3.4592    1.5040    0.0000 C   0  0  0  0  0  0  0  0  0  0  0  0
    2.6069    1.0027    0.0000 C   0  0  0  0  0  0  0  0  0  0  0  0
    4.3115    1.0027    0.0000 C   0  0  0  0  0  0  0  0  0  0  0  0
    1.7045    1.5040    0.0000 C   0  0  0  0  0  0  0  0  0  0  0  0
    5.2139    1.5040    0.0000 C   0  0  0  0  0  0  0  0  0  0  0  0
    0.8523    1.0027    0.0000 C   0  0  0  0  0  0  0  0  0  0  0  0
    6.0661    1.0027    0.0000 C   0  0  0  0  0  0  0  0  0  0  0  0
    0.8523    0.0000    0.0000 C   0  0  0  0  0  0  0  0  0  0  0  0
    0.0000    1.5040    0.0000 O   0  0  0  0  0  0  0  0  0  0  0  0
    6.9184    1.5040    0.0000 C   0  0  0  0  0  0  0  0  0  0  0  0
  1  2  1  0  0  0  0 
  1  3  1  0  0  0  0 
  2  4  1  0  0  0  0 
  3  5  1  0  0  0  0 
  4  6  1  0  0  0  0 
  5  7  1  0  0  0  0 
  6  8  1  0  0  0  0 
  6  9  1  0  0  0  0 
  7 10  1  0  0  0  0 
M  END
> <Name>
2-NONANOL

> <Source>
NIST2DMolFile

> <Tox>
-1.170

> <CAS>
628-99-9

$$$$

  CDK

  8  7  0  0  0  0  0  0  0  0999 V2000
    5.4803    1.3098    0.7532 C   0  0  0  0  0  0  0  0  0  0  0  0
    4.0922    0.7916    1.0986 C   0  0  0  0  0  0  0  0  0  0  0  0
    6.2003    1.8195    1.9980 C   0  0  0  0  0  0  0  0  0  0  0  0
    3.1847    1.9110    1.5859 C   0  0  0  0  0  0  0  0  0  0  0  0
    7.4252    2.4983    1.6675 C   0  0  0  0  0  0  0  0  0  0  0  0
    1.8571    1.3767    2.0955 C   0  0  0  0  0  0  0  0  0  0  0  0
    8.4413    3.0593    1.3990 C   0  0  0  0  0  0  0  0  0  0  0  0
    0.9557    2.4948    2.5683 C   0  0  0  0  0  0  0  0  0  0  0  0
  1  2  1  0  0  0  0 
  1  3  1  0  0  0  0 
  2  4  1  0  0  0  0 
  3  5  1  0  0  0  0 
  4  6  1  0  0  0  0 
  5  7  3  0  0  0  0 
  6  8  1  0  0  0  0 
M  END
> <Name>
1-OCTYNE

> <Source>
NIST3DMolFile

> <Tox>
1.134

> <CAS>
629-05-0

$$$$

  CDK

  8  7  0  0  0  0  0  0  0  0999 V2000
    1.1732   -0.0000    0.0000 C   0  0  0  0  0  0  0  0  0  0  0  0
    2.3382   -0.6436    0.0000 C   0  0  0  0  0  0  0  0  0  0  0  0
    0.0000   -0.6436    0.0000 O   0  0  0  0  0  0  0  0  0  0  0  0
    3.4788   -0.0000    0.0000 C   0  0  0  0  0  0  0  0  0  0  0  0
    4.6357   -0.6436    0.0000 C   0  0  0  0  0  0  0  0  0  0  0  0
    5.8089   -0.0000    0.0000 C   0  0  0  0  0  0  0  0  0  0  0  0
    6.9740   -0.6436    0.0000 C   0  0  0  0  0  0  0  0  0  0  0  0
    8.1472   -0.0000    0.0000 O   0  0  0  0  0  0  0  0  0  0  0  0
  1  2  1  0  0  0  0 
  1  3  1  0  0  0  0 
  2  4  1  0  0  0  0 
  4  5  1  0  0  0  0 
  5  6  1  0  0  0  0 
  6  7  1  0  0  0  0 
  7  8  1  0  0  0  0 
M  END
> <Name>
1,6-HEXANEDIOL

> <Source>
DSSTox2DMolFile

> <Tox>
-3.301

> <CAS>
629-11-8

$$$$

  CDK

  8  7  0  0  0  0  0  0  0  0999 V2000
    8.0744   -0.0000    0.0000 C   0  0  0  0  0  0  0  0  0  0  0  0
    6.9197   -0.6621    0.0000 C   0  0  0  0  0  0  0  0  0  0  0  0
    5.7651   -0.0000    0.0000 C   0  0  0  0  0  0  0  0  0  0  0  0
    4.6105   -0.6621    0.0000 S   0  0  0  0  0  0  0  0  0  0  0  0
    3.4639   -0.0000    0.0000 S   0  0  0  0  0  0  0  0  0  0  0  0
    2.3093   -0.6621    0.0000 C   0  0  0  0  0  0  0  0  0  0  0  0
    1.1546   -0.0000    0.0000 C   0  0  0  0  0  0  0  0  0  0  0  0
    0.0000   -0.6621    0.0000 C   0  0  0  0  0  0  0  0  0  0  0  0
  1  2  1  0  0  0  0 
  2  3  1  0  0  0  0 
  3  4  1  0  0  0  0 
  4  5  1  0  0  0  0 
  5  6  1  0  0  0  0 
  6  7  1  0  0  0  0 
  7  8  1  0  0  0  0 
M  END
> <Name>
4,5-DITHIAOCTANE

> <Source>
DSSTox2DMolFile

> <Tox>
-0.291

> <CAS>
629-19-6

$$$$

  CDK

  8  8  0  0  0  0  0  0  0  0999 V2000
    1.7639    1.2177    3.6955 C   0  0  0  0  0  0  0  0  0  0  0  0
    0.8434    1.9172    2.8069 C   0  0  0  0  0  0  0  0  0  0  0  0
    3.0946    1.2303    3.5897 C   0  0  0  0  0  0  0  0  0  0  0  0
    0.7408    1.7136    1.4915 C   0  0  0  0  0  0  0  0  0  0  0  0
    3.8486    1.9469    2.5677 C   0  0  0  0  0  0  0  0  0  0  0  0
    1.5318    0.7570    0.7260 C   0  0  0  0  0  0  0  0  0  0  0  0
    3.7458    1.7428    1.2523 C   0  0  0  0  0  0  0  0  0  0  0  0
    2.8626    0.7697    0.6204 C   0  0  0  0  0  0  0  0  0  0  0  0
  1  2  1  0  0  0  0 
  3  1  2  0  0  0  0 
  4  2  2  0  0  0  0 
  5  3  1  0  0  0  0 
  6  4  1  0  0  0  0 
  5  7  2  0  0  0  0 
  8  6  2  0  0  0  0 
  7  8  1  0  0  0  0 
M  END
> <Name>
1,3,5,7-CYCLOOCTATETRAENE

> <Source>
NIST3DMolFile

> <Tox>
0.892

> <CAS>
629-20-9

$$$$

  CDK

  9  8  0  0  0  0  0  0  0  0999 V2000
    4.3129    0.5015    0.0000 C   0  0  0  0  0  0  0  0  0  0  0  0
    3.4604    0.0000    0.0000 C   0  0  0  0  0  0  0  0  0  0  0  0
    5.2156    0.0000    0.0000 C   0  0  0  0  0  0  0  0  0  0  0  0
    2.6078    0.5015    0.0000 C   0  0  0  0  0  0  0  0  0  0  0  0
    6.0682    0.5015    0.0000 C   0  0  0  0  0  0  0  0  0  0  0  0
    1.7051    0.0000    0.0000 C   0  0  0  0  0  0  0  0  0  0  0  0
    6.9207    0.0000    0.0000 C   0  0  0  0  0  0  0  0  0  0  0  0
    0.8526    0.5015    0.0000 C   0  0  0  0  0  0  0  0  0  0  0  0
    0.0000    0.0000    0.0000 I   0  0  0  0  0  0  0  0  0  0  0  0
  1  2  1  0  0  0  0 
  1  3  1  0  0  0  0 
  2  4  1  0  0  0  0 
  3  5  1  0  0  0  0 
  4  6  1  0  0  0  0 
  5  7  1  0  0  0  0 
  6  8  1  0  0  0  0 
  8  9  1  0  0  0  0 
M  END
> <Name>
1-IODOOCTANE

> <Source>
NIST2DMolFile

> <Tox>
-0.602

> <CAS>
629-27-6

$$$$

  CDK

 14 13  0  0  0  0  0  0  0  0999 V2000
    0.0000   -0.6716    0.0000 C   0  0  0  0  0  0  0  0  0  0  0  0
    1.1491   -0.0000    0.0000 C   0  0  0  0  0  0  0  0  0  0  0  0
    2.2983   -0.6716    0.0000 C   0  0  0  0  0  0  0  0  0  0  0  0
    3.4325   -0.0000    0.0000 C   0  0  0  0  0  0  0  0  0  0  0  0
    4.5816   -0.6716    0.0000 C   0  0  0  0  0  0  0  0  0  0  0  0
    5.7308   -0.0000    0.0000 C   0  0  0  0  0  0  0  0  0  0  0  0
    6.8799   -0.6716    0.0000 C   0  0  0  0  0  0  0  0  0  0  0  0
    8.0440   -0.0000    0.0000 C   0  0  0  0  0  0  0  0  0  0  0  0
    9.1931   -0.6716    0.0000 C   0  0  0  0  0  0  0  0  0  0  0  0
   10.3422   -0.0000    0.0000 C   0  0  0  0  0  0  0  0  0  0  0  0
   11.4914   -0.6716    0.0000 C   0  0  0  0  0  0  0  0  0  0  0  0
   12.6256   -0.0000    0.0000 C   0  0  0  0  0  0  0  0  0  0  0  0
   13.7747   -0.6716    0.0000 C   0  0  0  0  0  0  0  0  0  0  0  0
   14.9238   -0.0000    0.0000 C   0  0  0  0  0  0  0  0  0  0  0  0
  1  2  1  0  0  0  0 
  2  3  1  0  0  0  0 
  3  4  1  0  0  0  0 
  4  5  1  0  0  0  0 
  5  6  1  0  0  0  0 
  6  7  1  0  0  0  0 
  7  8  1  0  0  0  0 
  8  9  1  0  0  0  0 
  9 10  1  0  0  0  0 
 10 11  1  0  0  0  0 
 11 12  1  0  0  0  0 
 12 13  1  0  0  0  0 
 13 14  1  0  0  0  0 
M  END
> <Name>
TETRADECANE

> <Source>
DSSTox2DMolFile

> <Tox>
-1.936

> <CAS>
629-59-4

$$$$

  CDK

 15 14  0  0  0  0  0  0  0  0999 V2000
    0.0000   -0.6741    0.0000 C   0  0  0  0  0  0  0  0  0  0  0  0
    1.1557   -0.0000    0.0000 C   0  0  0  0  0  0  0  0  0  0  0  0
    2.2953   -0.6741    0.0000 C   0  0  0  0  0  0  0  0  0  0  0  0
    3.4349   -0.0000    0.0000 C   0  0  0  0  0  0  0  0  0  0  0  0
    4.5745   -0.6741    0.0000 C   0  0  0  0  0  0  0  0  0  0  0  0
    5.7301   -0.0000    0.0000 C   0  0  0  0  0  0  0  0  0  0  0  0
    6.8697   -0.6741    0.0000 C   0  0  0  0  0  0  0  0  0  0  0  0
    8.0254   -0.0000    0.0000 C   0  0  0  0  0  0  0  0  0  0  0  0
    9.1811   -0.6741    0.0000 C   0  0  0  0  0  0  0  0  0  0  0  0
   10.3207   -0.0000    0.0000 C   0  0  0  0  0  0  0  0  0  0  0  0
   11.4763   -0.6741    0.0000 C   0  0  0  0  0  0  0  0  0  0  0  0
   12.6159   -0.0000    0.0000 C   0  0  0  0  0  0  0  0  0  0  0  0
   13.7555   -0.6741    0.0000 C   0  0  0  0  0  0  0  0  0  0  0  0
   14.8951   -0.0000    0.0000 C   0  0  0  0  0  0  0  0  0  0  0  0
   16.0508   -0.6741    0.0000 C   0  0  0  0  0  0  0  0  0  0  0  0
  1  2  1  0  0  0  0 
  2  3  1  0  0  0  0 
  3  4  1  0  0  0  0 
  4  5  1  0  0  0  0 
  5  6  1  0  0  0  0 
  6  7  1  0  0  0  0 
  7  8  1  0  0  0  0 
  8  9  1  0  0  0  0 
  9 10  1  0  0  0  0 
 10 11  1  0  0  0  0 
 11 12  1  0  0  0  0 
 12 13  1  0  0  0  0 
 13 14  1  0  0  0  0 
 14 15  1  0  0  0  0 
M  END
> <Name>
N-PENTADECANE

> <Source>
DSSTox2DMolFile

> <Tox>
-2.465

> <CAS>
629-62-9

$$$$

  CDK

 16 15  0  0  0  0  0  0  0  0999 V2000
    6.9457    0.4997    0.0000 C   0  0  0  0  0  0  0  0  0  0  0  0
    6.0462    0.0000    0.0000 C   0  0  0  0  0  0  0  0  0  0  0  0
    7.7951    0.0000    0.0000 C   0  0  0  0  0  0  0  0  0  0  0  0
    5.1968    0.4997    0.0000 C   0  0  0  0  0  0  0  0  0  0  0  0
    8.6446    0.4997    0.0000 C   0  0  0  0  0  0  0  0  0  0  0  0
    4.3473    0.0000    0.0000 C   0  0  0  0  0  0  0  0  0  0  0  0
    9.5440    0.0000    0.0000 C   0  0  0  0  0  0  0  0  0  0  0  0
    3.4478    0.4997    0.0000 C   0  0  0  0  0  0  0  0  0  0  0  0
   10.3935    0.4997    0.0000 C   0  0  0  0  0  0  0  0  0  0  0  0
    2.5984    0.0000    0.0000 C   0  0  0  0  0  0  0  0  0  0  0  0
   11.2430    0.0000    0.0000 C   0  0  0  0  0  0  0  0  0  0  0  0
    1.7489    0.4997    0.0000 C   0  0  0  0  0  0  0  0  0  0  0  0
   12.1424    0.4997    0.0000 C   0  0  0  0  0  0  0  0  0  0  0  0
    0.8495    0.0000    0.0000 C   0  0  0  0  0  0  0  0  0  0  0  0
   12.9919    0.0000    0.0000 C   0  0  0  0  0  0  0  0  0  0  0  0
    0.0000    0.4997    0.0000 Br  0  0  0  0  0  0  0  0  0  0  0  0
  1  2  1  0  0  0  0 
  1  3  1  0  0  0  0 
  2  4  1  0  0  0  0 
  3  5  1  0  0  0  0 
  4  6  1  0  0  0  0 
  5  7  1  0  0  0  0 
  6  8  1  0  0  0  0 
  7  9  1  0  0  0  0 
  8 10  1  0  0  0  0 
  9 11  1  0  0  0  0 
 10 12  1  0  0  0  0 
 11 13  1  0  0  0  0 
 12 14  1  0  0  0  0 
 13 15  1  0  0  0  0 
 14 16  1  0  0  0  0 
M  END
> <Name>
1-BROMOPENTADECANE

> <Source>
NIST2DMolFile

> <Tox>
-3.830

> <CAS>
629-72-1

$$$$

  CDK

 16 15  0  0  0  0  0  0  0  0999 V2000
    0.0000   -0.0000    0.0000 C   0  0  0  0  0  0  0  0  0  0  0  0
    1.1365   -0.6716    0.0000 C   0  0  0  0  0  0  0  0  0  0  0  0
    2.3074   -0.0000    0.0000 C   0  0  0  0  0  0  0  0  0  0  0  0
    3.4439   -0.6716    0.0000 C   0  0  0  0  0  0  0  0  0  0  0  0
    4.5976   -0.0000    0.0000 C   0  0  0  0  0  0  0  0  0  0  0  0
    5.7341   -0.6716    0.0000 C   0  0  0  0  0  0  0  0  0  0  0  0
    6.8879   -0.0000    0.0000 C   0  0  0  0  0  0  0  0  0  0  0  0
    8.0244   -0.6716    0.0000 C   0  0  0  0  0  0  0  0  0  0  0  0
    9.1953   -0.0000    0.0000 C   0  0  0  0  0  0  0  0  0  0  0  0
   10.3318   -0.6716    0.0000 C   0  0  0  0  0  0  0  0  0  0  0  0
   11.4855   -0.0000    0.0000 C   0  0  0  0  0  0  0  0  0  0  0  0
   12.6220   -0.6716    0.0000 C   0  0  0  0  0  0  0  0  0  0  0  0
   13.7757   -0.0000    0.0000 C   0  0  0  0  0  0  0  0  0  0  0  0
   14.9122   -0.6716    0.0000 C   0  0  0  0  0  0  0  0  0  0  0  0
   16.0832   -0.0000    0.0000 C   0  0  0  0  0  0  0  0  0  0  0  0
   17.2197   -0.6716    0.0000 C   0  0  0  0  0  0  0  0  0  0  0  0
  1  2  2  0  0  0  0 
  2  3  1  0  0  0  0 
  3  4  1  0  0  0  0 
  4  5  1  0  0  0  0 
  5  6  1  0  0  0  0 
  6  7  1  0  0  0  0 
  7  8  1  0  0  0  0 
  8  9  1  0  0  0  0 
  9 10  1  0  0  0  0 
 10 11  1  0  0  0  0 
 11 12  1  0  0  0  0 
 12 13  1  0  0  0  0 
 13 14  1  0  0  0  0 
 14 15  1  0  0  0  0 
 15 16  1  0  0  0  0 
M  END
> <Name>
1-HEXADECENE

> <Source>
DSSTox2DMolFile

> <Tox>
-2.578

> <CAS>
629-73-2

$$$$

  CDK

 16 15  0  0  0  0  0  0  0  0999 V2000
    1.1365   -0.0000    0.0000 C   0  0  0  0  0  0  0  0  0  0  0  0
    2.3074   -0.6716    0.0000 C   0  0  0  0  0  0  0  0  0  0  0  0
    0.0000   -0.6716    0.0000 O   0  0  0  0  0  0  0  0  0  0  0  0
    3.4439   -0.0000    0.0000 C   0  0  0  0  0  0  0  0  0  0  0  0
    4.5976   -0.6716    0.0000 C   0  0  0  0  0  0  0  0  0  0  0  0
    5.7341   -0.0000    0.0000 C   0  0  0  0  0  0  0  0  0  0  0  0
    6.8879   -0.6716    0.0000 C   0  0  0  0  0  0  0  0  0  0  0  0
    8.0244   -0.0000    0.0000 C   0  0  0  0  0  0  0  0  0  0  0  0
    9.1953   -0.6716    0.0000 C   0  0  0  0  0  0  0  0  0  0  0  0
   10.3318   -0.0000    0.0000 C   0  0  0  0  0  0  0  0  0  0  0  0
   11.4855   -0.6716    0.0000 C   0  0  0  0  0  0  0  0  0  0  0  0
   12.6220   -0.0000    0.0000 C   0  0  0  0  0  0  0  0  0  0  0  0
   13.7757   -0.6716    0.0000 C   0  0  0  0  0  0  0  0  0  0  0  0
   14.9122   -0.0000    0.0000 C   0  0  0  0  0  0  0  0  0  0  0  0
   16.0832   -0.6716    0.0000 C   0  0  0  0  0  0  0  0  0  0  0  0
   17.2197   -0.0000    0.0000 C   0  0  0  0  0  0  0  0  0  0  0  0
  1  2  1  0  0  0  0 
  1  3  1  0  0  0  0 
  2  4  1  0  0  0  0 
  4  5  1  0  0  0  0 
  5  6  1  0  0  0  0 
  6  7  1  0  0  0  0 
  7  8  1  0  0  0  0 
  8  9  1  0  0  0  0 
  9 10  1  0  0  0  0 
 10 11  1  0  0  0  0 
 11 12  1  0  0  0  0 
 12 13  1  0  0  0  0 
 13 14  1  0  0  0  0 
 14 15  1  0  0  0  0 
 15 16  1  0  0  0  0 
M  END
> <Name>
1-PENTADECANOL

> <Source>
DSSTox2DMolFile

> <Tox>
-4.415

> <CAS>
629-76-5

$$$$

  CDK

 17 16  0  0  0  0  0  0  0  0999 V2000
    8.9715    1.6702    2.0814 C   0  0  0  0  0  0  0  0  0  0  0  0
    7.5601    1.1065    2.0985 C   0  0  0  0  0  0  0  0  0  0  0  0
    9.7817    1.1661    3.2647 C   0  0  0  0  0  0  0  0  0  0  0  0
    6.7161    1.6130    0.9374 C   0  0  0  0  0  0  0  0  0  0  0  0
   11.1934    1.7296    3.2483 C   0  0  0  0  0  0  0  0  0  0  0  0
    6.1807    3.0185    1.1711 C   0  0  0  0  0  0  0  0  0  0  0  0
   12.0031    1.2254    4.4314 C   0  0  0  0  0  0  0  0  0  0  0  0
    5.2248    3.0648    2.3513 C   0  0  0  0  0  0  0  0  0  0  0  0
   13.4168    1.7848    4.4143 C   0  0  0  0  0  0  0  0  0  0  0  0
    4.8251    4.4886    2.7022 C   0  0  0  0  0  0  0  0  0  0  0  0
   14.2510    1.3252    5.6024 C   0  0  0  0  0  0  0  0  0  0  0  0
    3.7345    4.5169    3.7628 C   0  0  0  0  0  0  0  0  0  0  0  0
   14.0221    2.1371    6.8707 C   0  0  0  0  0  0  0  0  0  0  0  0
    2.4344    3.9222    3.2411 C   0  0  0  0  0  0  0  0  0  0  0  0
   12.8150    1.6805    7.6585 C   0  0  0  0  0  0  0  0  0  0  0  0
    1.3853    3.7498    4.3273 C   0  0  0  0  0  0  0  0  0  0  0  0
    0.7678    5.0625    4.7556 C   0  0  0  0  0  0  0  0  0  0  0  0
  1  2  1  0  0  0  0 
  1  3  1  0  0  0  0 
  2  4  1  0  0  0  0 
  3  5  1  0  0  0  0 
  4  6  1  0  0  0  0 
  5  7  1  0  0  0  0 
  6  8  1  0  0  0  0 
  7  9  1  0  0  0  0 
  8 10  1  0  0  0  0 
  9 11  1  0  0  0  0 
 10 12  1  0  0  0  0 
 11 13  1  0  0  0  0 
 12 14  1  0  0  0  0 
 13 15  1  0  0  0  0 
 14 16  1  0  0  0  0 
 16 17  1  0  0  0  0 
M  END
> <Name>
HEPTADECANE

> <Source>
NIST3DMolFile

> <Tox>
-3.642

> <CAS>
629-78-7

$$$$

  CDK

 19 18  0  0  0  0  0  0  0  0999 V2000
    9.5875    2.3081    6.8737 C   0  0  0  0  0  0  0  0  0  0  0  0
    8.8046    1.3316    7.7430 C   0  0  0  0  0  0  0  0  0  0  0  0
    9.7994    1.7782    5.4633 C   0  0  0  0  0  0  0  0  0  0  0  0
    8.0439    2.0392    8.8559 C   0  0  0  0  0  0  0  0  0  0  0  0
    8.4779    1.6216    4.7288 C   0  0  0  0  0  0  0  0  0  0  0  0
    6.9615    2.9524    8.2944 C   0  0  0  0  0  0  0  0  0  0  0  0
    8.6565    1.0698    3.3251 C   0  0  0  0  0  0  0  0  0  0  0  0
    5.8707    2.1642    7.5829 C   0  0  0  0  0  0  0  0  0  0  0  0
    7.3364    1.0550    2.5680 C   0  0  0  0  0  0  0  0  0  0  0  0
    5.1077    3.0276    6.5926 C   0  0  0  0  0  0  0  0  0  0  0  0
    6.8183    2.4639    2.3215 C   0  0  0  0  0  0  0  0  0  0  0  0
    4.0772    2.2117    5.8297 C   0  0  0  0  0  0  0  0  0  0  0  0
    5.4203    2.4508    1.7280 C   0  0  0  0  0  0  0  0  0  0  0  0
    3.2939    3.0791    4.8579 C   0  0  0  0  0  0  0  0  0  0  0  0
    4.9497    3.8562    1.3871 C   0  0  0  0  0  0  0  0  0  0  0  0
    2.2818    2.2866    4.0415 C   0  0  0  0  0  0  0  0  0  0  0  0
    3.5230    3.8566    0.8860 C   0  0  0  0  0  0  0  0  0  0  0  0
    0.9421    2.0926    4.7373 C   0  0  0  0  0  0  0  0  0  0  0  0
    0.9615    0.9687    5.7493 C   0  0  0  0  0  0  0  0  0  0  0  0
  1  2  1  0  0  0  0 
  1  3  1  0  0  0  0 
  2  4  1  0  0  0  0 
  3  5  1  0  0  0  0 
  4  6  1  0  0  0  0 
  5  7  1  0  0  0  0 
  6  8  1  0  0  0  0 
  7  9  1  0  0  0  0 
  8 10  1  0  0  0  0 
  9 11  1  0  0  0  0 
 10 12  1  0  0  0  0 
 11 13  1  0  0  0  0 
 12 14  1  0  0  0  0 
 13 15  1  0  0  0  0 
 14 16  1  0  0  0  0 
 15 17  1  0  0  0  0 
 16 18  1  0  0  0  0 
 18 19  1  0  0  0  0 
M  END
> <Name>
NONADECANE

> <Source>
NIST3DMolFile

> <Tox>
-4.310

> <CAS>
629-92-5

$$$$

  CDK

 21 20  0  0  0  0  0  0  0  0999 V2000
    8.9155    7.4438    3.9437 C   0  0  0  0  0  0  0  0  0  0  0  0
    8.9133    8.9597    3.8236 C   0  0  0  0  0  0  0  0  0  0  0  0
    9.7954    6.7995    2.8868 C   0  0  0  0  0  0  0  0  0  0  0  0
    7.8788    9.5876    4.7476 C   0  0  0  0  0  0  0  0  0  0  0  0
    9.7940    5.2863    3.0159 C   0  0  0  0  0  0  0  0  0  0  0  0
    6.4656    9.2374    4.3062 C   0  0  0  0  0  0  0  0  0  0  0  0
   10.6571    4.6310    1.9484 C   0  0  0  0  0  0  0  0  0  0  0  0
    6.1150    9.8845    2.9741 C   0  0  0  0  0  0  0  0  0  0  0  0
   10.7961    3.1346    2.1850 C   0  0  0  0  0  0  0  0  0  0  0  0
    4.8811    9.2548    2.3475 C   0  0  0  0  0  0  0  0  0  0  0  0
   11.5582    2.8421    3.4670 C   0  0  0  0  0  0  0  0  0  0  0  0
    5.1322    7.8064    1.9555 C   0  0  0  0  0  0  0  0  0  0  0  0
   11.5355    1.3630    3.8156 C   0  0  0  0  0  0  0  0  0  0  0  0
    3.8605    7.1244    1.4867 C   0  0  0  0  0  0  0  0  0  0  0  0
   12.4593    1.0514    4.9833 C   0  0  0  0  0  0  0  0  0  0  0  0
    4.1175    5.6833    1.0734 C   0  0  0  0  0  0  0  0  0  0  0  0
   13.9174    1.2940    4.6230 C   0  0  0  0  0  0  0  0  0  0  0  0
    2.8186    4.9470    0.7815 C   0  0  0  0  0  0  0  0  0  0  0  0
   14.8228    1.1603    5.8248 C   0  0  0  0  0  0  0  0  0  0  0  0
    1.9681    4.7960    2.0340 C   0  0  0  0  0  0  0  0  0  0  0  0
    0.6030    4.2299    1.7207 C   0  0  0  0  0  0  0  0  0  0  0  0
  1  2  1  0  0  0  0 
  1  3  1  0  0  0  0 
  2  4  1  0  0  0  0 
  3  5  1  0  0  0  0 
  4  6  1  0  0  0  0 
  5  7  1  0  0  0  0 
  6  8  1  0  0  0  0 
  7  9  1  0  0  0  0 
  8 10  1  0  0  0  0 
  9 11  1  0  0  0  0 
 10 12  1  0  0  0  0 
 11 13  1  0  0  0  0 
 12 14  1  0  0  0  0 
 13 15  1  0  0  0  0 
 14 16  1  0  0  0  0 
 15 17  1  0  0  0  0 
 16 18  1  0  0  0  0 
 17 19  1  0  0  0  0 
 18 20  1  0  0  0  0 
 20 21  1  0  0  0  0 
M  END
> <Name>
HENEICOSANE

> <Source>
NIST3DMolFile

> <Tox>
-4.059

> <CAS>
629-94-7

$$$$

  CDK

 21 20  0  0  0  0  0  0  0  0999 V2000
    1.1703   -0.0000    0.0000 C   0  0  0  0  0  0  0  0  0  0  0  0
    2.3405   -0.6319    0.0000 C   0  0  0  0  0  0  0  0  0  0  0  0
    0.0000   -0.6319    0.0000 O   0  0  0  0  0  0  0  0  0  0  0  0
    3.5108   -0.0000    0.0000 C   0  0  0  0  0  0  0  0  0  0  0  0
    4.6811   -0.6319    0.0000 C   0  0  0  0  0  0  0  0  0  0  0  0
    5.8514   -0.0000    0.0000 C   0  0  0  0  0  0  0  0  0  0  0  0
    7.0216   -0.6319    0.0000 C   0  0  0  0  0  0  0  0  0  0  0  0
    8.1919   -0.0000    0.0000 C   0  0  0  0  0  0  0  0  0  0  0  0
    9.3622   -0.6319    0.0000 C   0  0  0  0  0  0  0  0  0  0  0  0
   10.5325   -0.0000    0.0000 C   0  0  0  0  0  0  0  0  0  0  0  0
   11.7027   -0.6319    0.0000 C   0  0  0  0  0  0  0  0  0  0  0  0
   12.8730   -0.0000    0.0000 C   0  0  0  0  0  0  0  0  0  0  0  0
   14.0433   -0.6319    0.0000 C   0  0  0  0  0  0  0  0  0  0  0  0
   15.2136   -0.0000    0.0000 C   0  0  0  0  0  0  0  0  0  0  0  0
   16.3838   -0.6319    0.0000 C   0  0  0  0  0  0  0  0  0  0  0  0
   17.5541   -0.0000    0.0000 C   0  0  0  0  0  0  0  0  0  0  0  0
   18.7244   -0.6319    0.0000 C   0  0  0  0  0  0  0  0  0  0  0  0
   19.8947   -0.0000    0.0000 C   0  0  0  0  0  0  0  0  0  0  0  0
   21.0649   -0.6319    0.0000 C   0  0  0  0  0  0  0  0  0  0  0  0
   22.2352   -0.0000    0.0000 C   0  0  0  0  0  0  0  0  0  0  0  0
   23.4055   -0.6319    0.0000 C   0  0  0  0  0  0  0  0  0  0  0  0
  1  2  1  0  0  0  0 
  1  3  1  0  0  0  0 
  2  4  1  0  0  0  0 
  4  5  1  0  0  0  0 
  5  6  1  0  0  0  0 
  6  7  1  0  0  0  0 
  7  8  1  0  0  0  0 
  8  9  1  0  0  0  0 
  9 10  1  0  0  0  0 
 10 11  1  0  0  0  0 
 11 12  1  0  0  0  0 
 12 13  1  0  0  0  0 
 13 14  1  0  0  0  0 
 14 15  1  0  0  0  0 
 15 16  1  0  0  0  0 
 16 17  1  0  0  0  0 
 17 18  1  0  0  0  0 
 18 19  1  0  0  0  0 
 19 20  1  0  0  0  0 
 20 21  1  0  0  0  0 
M  END
> <Name>
1-EICOSANOL

> <Source>
DSSTox2DMolFile

> <Tox>
-7.345

> <CAS>
629-96-9

$$$$

  CDK

 25 24  0  0  0  0  0  0  0  0999 V2000
   12.4033    6.3527    2.8196 C   0  0  0  0  0  0  0  0  0  0  0  0
   10.9898    6.8209    3.1234 C   0  0  0  0  0  0  0  0  0  0  0  0
   12.4065    5.1191    1.9282 C   0  0  0  0  0  0  0  0  0  0  0  0
   10.2878    7.3042    1.8628 C   0  0  0  0  0  0  0  0  0  0  0  0
   13.8196    4.6516    1.6186 C   0  0  0  0  0  0  0  0  0  0  0  0
    8.8136    7.5662    2.1085 C   0  0  0  0  0  0  0  0  0  0  0  0
   14.5612    4.1984    2.8674 C   0  0  0  0  0  0  0  0  0  0  0  0
    8.1153    8.0656    0.8527 C   0  0  0  0  0  0  0  0  0  0  0  0
   14.1894    2.7875    3.2972 C   0  0  0  0  0  0  0  0  0  0  0  0
    6.6091    8.1521    1.0499 C   0  0  0  0  0  0  0  0  0  0  0  0
   15.0673    2.3063    4.4432 C   0  0  0  0  0  0  0  0  0  0  0  0
    5.9950    6.7763    1.2599 C   0  0  0  0  0  0  0  0  0  0  0  0
   16.5170    2.1546    4.0087 C   0  0  0  0  0  0  0  0  0  0  0  0
    4.5271    6.8693    1.6386 C   0  0  0  0  0  0  0  0  0  0  0  0
   17.4269    1.8550    5.1872 C   0  0  0  0  0  0  0  0  0  0  0  0
    3.9232    5.4913    1.8471 C   0  0  0  0  0  0  0  0  0  0  0  0
   18.8696    1.6799    4.7410 C   0  0  0  0  0  0  0  0  0  0  0  0
    2.4487    5.5737    2.2120 C   0  0  0  0  0  0  0  0  0  0  0  0
   19.7815    1.3865    5.9210 C   0  0  0  0  0  0  0  0  0  0  0  0
    1.8947    4.2122    2.6058 C   0  0  0  0  0  0  0  0  0  0  0  0
   21.2237    1.2040    5.4759 C   0  0  0  0  0  0  0  0  0  0  0  0
    2.5295    3.7040    3.8921 C   0  0  0  0  0  0  0  0  0  0  0  0
   22.1328    0.9143    6.6486 C   0  0  0  0  0  0  0  0  0  0  0  0
    2.1502    2.2672    4.2116 C   0  0  0  0  0  0  0  0  0  0  0  0
    0.7281    2.1365    4.7101 C   0  0  0  0  0  0  0  0  0  0  0  0
  1  2  1  0  0  0  0 
  1  3  1  0  0  0  0 
  2  4  1  0  0  0  0 
  3  5  1  0  0  0  0 
  4  6  1  0  0  0  0 
  5  7  1  0  0  0  0 
  6  8  1  0  0  0  0 
  7  9  1  0  0  0  0 
  8 10  1  0  0  0  0 
  9 11  1  0  0  0  0 
 10 12  1  0  0  0  0 
 11 13  1  0  0  0  0 
 12 14  1  0  0  0  0 
 13 15  1  0  0  0  0 
 14 16  1  0  0  0  0 
 15 17  1  0  0  0  0 
 16 18  1  0  0  0  0 
 17 19  1  0  0  0  0 
 18 20  1  0  0  0  0 
 19 21  1  0  0  0  0 
 20 22  1  0  0  0  0 
 21 23  1  0  0  0  0 
 22 24  1  0  0  0  0 
 24 25  1  0  0  0  0 
M  END
> <Name>
PENTACOSANE

> <Source>
NIST3DMolFile

> <Tox>
-5.821

> <CAS>
629-99-2

$$$$

  CDK

 26 25  0  0  0  0  0  0  0  0999 V2000
    0.9535    4.2607    0.8305 C   0  0  0  0  0  0  0  0  0  0  0  0
    2.0688    3.2563    1.0135 C   0  0  0  0  0  0  0  0  0  0  0  0
    3.3913    3.9418    1.3181 C   0  0  0  0  0  0  0  0  0  0  0  0
    4.5116    2.9307    1.4986 C   0  0  0  0  0  0  0  0  0  0  0  0
    5.8321    3.6176    1.8067 C   0  0  0  0  0  0  0  0  0  0  0  0
    6.9530    2.6064    1.9846 C   0  0  0  0  0  0  0  0  0  0  0  0
    8.2729    3.2934    2.2960 C   0  0  0  0  0  0  0  0  0  0  0  0
    9.3945    2.2823    2.4709 C   0  0  0  0  0  0  0  0  0  0  0  0
   10.7124    2.9693    2.7901 C   0  0  0  0  0  0  0  0  0  0  0  0
   11.8358    1.9590    2.9593 C   0  0  0  0  0  0  0  0  0  0  0  0
   13.1520    2.6459    3.2854 C   0  0  0  0  0  0  0  0  0  0  0  0
   14.2767    1.6363    3.4478 C   0  0  0  0  0  0  0  0  0  0  0  0
   15.5912    2.3224    3.7828 C   0  0  0  0  0  0  0  0  0  0  0  0
   16.7177    1.3135    3.9375 C   0  0  0  0  0  0  0  0  0  0  0  0
   18.0306    1.9989    4.2800 C   0  0  0  0  0  0  0  0  0  0  0  0
   19.1578    0.9904    4.4305 C   0  0  0  0  0  0  0  0  0  0  0  0
   20.4692    1.6763    4.7719 C   0  0  0  0  0  0  0  0  0  0  0  0
   21.6013    0.6735    4.9369 C   0  0  0  0  0  0  0  0  0  0  0  0
   22.9417    1.3680    5.1140 C   0  0  0  0  0  0  0  0  0  0  0  0
   23.3483    2.1411    3.8672 C   0  0  0  0  0  0  0  0  0  0  0  0
   24.5312    3.0588    4.1304 C   0  0  0  0  0  0  0  0  0  0  0  0
   24.1759    4.1609    5.1167 C   0  0  0  0  0  0  0  0  0  0  0  0
   25.3957    4.9759    5.5102 C   0  0  0  0  0  0  0  0  0  0  0  0
   25.0285    6.0868    6.4803 C   0  0  0  0  0  0  0  0  0  0  0  0
   26.2490    6.9000    6.8807 C   0  0  0  0  0  0  0  0  0  0  0  0
   25.8848    8.0082    7.8428 C   0  0  0  0  0  0  0  0  0  0  0  0
  1  2  1  0  0  0  0 
  2  3  1  0  0  0  0 
  3  4  1  0  0  0  0 
  4  5  1  0  0  0  0 
  5  6  1  0  0  0  0 
  6  7  1  0  0  0  0 
  7  8  1  0  0  0  0 
  8  9  1  0  0  0  0 
 10  9  1  0  0  0  0 
 11 10  1  0  0  0  0 
 12 11  1  0  0  0  0 
 13 12  1  0  0  0  0 
 14 13  1  0  0  0  0 
 14 15  1  0  0  0  0 
 15 16  1  0  0  0  0 
 16 17  1  0  0  0  0 
 18 17  1  0  0  0  0 
 19 18  1  0  0  0  0 
 20 19  1  0  0  0  0 
 21 20  1  0  0  0  0 
 22 21  1  0  0  0  0 
 22 23  1  0  0  0  0 
 23 24  1  0  0  0  0 
 24 25  1  0  0  0  0 
 25 26  1  0  0  0  0 
M  END
> <Name>
HEXACOSANE

> <Source>
NIST3DMolFile

> <Tox>
-6.329

> <CAS>
630-01-3

$$$$

  CDK

 28 27  0  0  0  0  0  0  0  0999 V2000
    4.8789    3.8029   10.6067 C   0  0  0  0  0  0  0  0  0  0  0  0
    4.6446    5.2336   11.0717 C   0  0  0  0  0  0  0  0  0  0  0  0
    6.2700    3.5245   10.0601 C   0  0  0  0  0  0  0  0  0  0  0  0
    4.5530    6.2475    9.9393 C   0  0  0  0  0  0  0  0  0  0  0  0
    6.4475    3.9638    8.6132 C   0  0  0  0  0  0  0  0  0  0  0  0
    3.4382    5.9116    8.9630 C   0  0  0  0  0  0  0  0  0  0  0  0
    7.7083    3.3806    7.9972 C   0  0  0  0  0  0  0  0  0  0  0  0
    2.0564    5.9686    9.6006 C   0  0  0  0  0  0  0  0  0  0  0  0
    7.5972    1.8715    7.8371 C   0  0  0  0  0  0  0  0  0  0  0  0
    1.0743    5.0928    8.8356 C   0  0  0  0  0  0  0  0  0  0  0  0
    8.8890    1.2191    7.3688 C   0  0  0  0  0  0  0  0  0  0  0  0
    1.3809    3.6103    9.0237 C   0  0  0  0  0  0  0  0  0  0  0  0
    9.8840    0.9406    8.4878 C   0  0  0  0  0  0  0  0  0  0  0  0
    1.0712    2.7887    7.7815 C   0  0  0  0  0  0  0  0  0  0  0  0
   10.7667    2.1366    8.8074 C   0  0  0  0  0  0  0  0  0  0  0  0
    1.9212    3.1924    6.5858 C   0  0  0  0  0  0  0  0  0  0  0  0
   11.7299    1.8265    9.9413 C   0  0  0  0  0  0  0  0  0  0  0  0
    3.3893    2.8238    6.7431 C   0  0  0  0  0  0  0  0  0  0  0  0
   12.6124    3.0225   10.2594 C   0  0  0  0  0  0  0  0  0  0  0  0
    4.1409    2.9074    5.4236 C   0  0  0  0  0  0  0  0  0  0  0  0
   13.5769    2.7120   11.3926 C   0  0  0  0  0  0  0  0  0  0  0  0
    3.6416    1.8747    4.4253 C   0  0  0  0  0  0  0  0  0  0  0  0
   14.4644    3.9056   11.7063 C   0  0  0  0  0  0  0  0  0  0  0  0
    4.2841    2.0574    3.0615 C   0  0  0  0  0  0  0  0  0  0  0  0
   15.4322    3.5951   12.8369 C   0  0  0  0  0  0  0  0  0  0  0  0
    3.7854    1.0185    2.0701 C   0  0  0  0  0  0  0  0  0  0  0  0
   16.3179    4.7800   13.1489 C   0  0  0  0  0  0  0  0  0  0  0  0
    4.4260    1.1961    0.7122 C   0  0  0  0  0  0  0  0  0  0  0  0
  1  2  1  0  0  0  0 
  1  3  1  0  0  0  0 
  2  4  1  0  0  0  0 
  3  5  1  0  0  0  0 
  4  6  1  0  0  0  0 
  5  7  1  0  0  0  0 
  6  8  1  0  0  0  0 
  7  9  1  0  0  0  0 
  8 10  1  0  0  0  0 
  9 11  1  0  0  0  0 
 10 12  1  0  0  0  0 
 11 13  1  0  0  0  0 
 12 14  1  0  0  0  0 
 13 15  1  0  0  0  0 
 14 16  1  0  0  0  0 
 15 17  1  0  0  0  0 
 16 18  1  0  0  0  0 
 17 19  1  0  0  0  0 
 18 20  1  0  0  0  0 
 19 21  1  0  0  0  0 
 20 22  1  0  0  0  0 
 21 23  1  0  0  0  0 
 22 24  1  0  0  0  0 
 23 25  1  0  0  0  0 
 24 26  1  0  0  0  0 
 25 27  1  0  0  0  0 
 26 28  1  0  0  0  0 
M  END
> <Name>
OCTACOSANE

> <Source>
NIST3DMolFile

> <Tox>
-8.796

> <CAS>
630-02-4

$$$$

  CDK

 29 28  0  0  0  0  0  0  0  0999 V2000
    8.2558    1.5535    6.1991 C   0  0  0  0  0  0  0  0  0  0  0  0
    7.1451    1.4420    7.2325 C   0  0  0  0  0  0  0  0  0  0  0  0
    9.5012    2.1979    6.7825 C   0  0  0  0  0  0  0  0  0  0  0  0
    5.8437    0.9687    6.6023 C   0  0  0  0  0  0  0  0  0  0  0  0
   10.6120    2.2890    5.7490 C   0  0  0  0  0  0  0  0  0  0  0  0
    5.2959    1.9939    5.6212 C   0  0  0  0  0  0  0  0  0  0  0  0
   11.8589    2.9332    6.3329 C   0  0  0  0  0  0  0  0  0  0  0  0
    4.0967    1.4566    4.8591 C   0  0  0  0  0  0  0  0  0  0  0  0
   12.9684    3.0247    5.2998 C   0  0  0  0  0  0  0  0  0  0  0  0
    3.5517    2.4946    3.8921 C   0  0  0  0  0  0  0  0  0  0  0  0
   14.2261    3.6525    5.8813 C   0  0  0  0  0  0  0  0  0  0  0  0
    2.3174    1.9856    3.1647 C   0  0  0  0  0  0  0  0  0  0  0  0
   15.2699    3.9086    4.8045 C   0  0  0  0  0  0  0  0  0  0  0  0
    1.7254    3.0087    2.2036 C   0  0  0  0  0  0  0  0  0  0  0  0
   14.7966    4.9541    3.8079 C   0  0  0  0  0  0  0  0  0  0  0  0
    0.8141    4.0313    2.8709 C   0  0  0  0  0  0  0  0  0  0  0  0
   15.7447    5.0828    2.6276 C   0  0  0  0  0  0  0  0  0  0  0  0
    1.5806    5.2054    3.4545 C   0  0  0  0  0  0  0  0  0  0  0  0
   15.3560    6.2396    1.7196 C   0  0  0  0  0  0  0  0  0  0  0  0
    0.6782    6.1510    4.2319 C   0  0  0  0  0  0  0  0  0  0  0  0
   15.4672    7.5930    2.4101 C   0  0  0  0  0  0  0  0  0  0  0  0
    1.4921    7.1548    5.0362 C   0  0  0  0  0  0  0  0  0  0  0  0
   16.8902    8.1301    2.4241 C   0  0  0  0  0  0  0  0  0  0  0  0
    2.2936    6.4700    6.1337 C   0  0  0  0  0  0  0  0  0  0  0  0
   17.3998    8.4091    1.0184 C   0  0  0  0  0  0  0  0  0  0  0  0
    3.2539    7.4310    6.8134 C   0  0  0  0  0  0  0  0  0  0  0  0
   18.8604    8.7949    1.0172 C   0  0  0  0  0  0  0  0  0  0  0  0
    4.0761    6.7548    7.9004 C   0  0  0  0  0  0  0  0  0  0  0  0
    3.2784    6.4934    9.1586 C   0  0  0  0  0  0  0  0  0  0  0  0
  1  2  1  0  0  0  0 
  1  3  1  0  0  0  0 
  2  4  1  0  0  0  0 
  3  5  1  0  0  0  0 
  4  6  1  0  0  0  0 
  5  7  1  0  0  0  0 
  6  8  1  0  0  0  0 
  7  9  1  0  0  0  0 
  8 10  1  0  0  0  0 
  9 11  1  0  0  0  0 
 10 12  1  0  0  0  0 
 11 13  1  0  0  0  0 
 12 14  1  0  0  0  0 
 13 15  1  0  0  0  0 
 14 16  1  0  0  0  0 
 15 17  1  0  0  0  0 
 16 18  1  0  0  0  0 
 17 19  1  0  0  0  0 
 18 20  1  0  0  0  0 
 19 21  1  0  0  0  0 
 20 22  1  0  0  0  0 
 21 23  1  0  0  0  0 
 22 24  1  0  0  0  0 
 23 25  1  0  0  0  0 
 24 26  1  0  0  0  0 
 25 27  1  0  0  0  0 
 26 28  1  0  0  0  0 
 28 29  1  0  0  0  0 
M  END
> <Name>
NONACOSANE

> <Source>
NIST3DMolFile

> <Tox>
-9.367

> <CAS>
630-03-5

$$$$

  CDK

 31 30  0  0  0  0  0  0  0  0999 V2000
    6.6159    1.2074    4.1515 C   0  0  0  0  0  0  0  0  0  0  0  0
    5.7849    2.3002    4.8079 C   0  0  0  0  0  0  0  0  0  0  0  0
    6.3499    1.0112    2.6647 C   0  0  0  0  0  0  0  0  0  0  0  0
    6.3233    3.6954    4.5344 C   0  0  0  0  0  0  0  0  0  0  0  0
    7.0255    2.0407    1.7717 C   0  0  0  0  0  0  0  0  0  0  0  0
    5.6139    4.7427    5.3727 C   0  0  0  0  0  0  0  0  0  0  0  0
    8.5362    2.0670    1.9527 C   0  0  0  0  0  0  0  0  0  0  0  0
    6.0410    6.1482    4.9815 C   0  0  0  0  0  0  0  0  0  0  0  0
    9.1797    3.2462    1.2430 C   0  0  0  0  0  0  0  0  0  0  0  0
    5.6019    7.1774    6.0101 C   0  0  0  0  0  0  0  0  0  0  0  0
    8.6286    4.5791    1.7264 C   0  0  0  0  0  0  0  0  0  0  0  0
    6.3018    6.9738    7.3483 C   0  0  0  0  0  0  0  0  0  0  0  0
    9.3653    5.7542    1.1040 C   0  0  0  0  0  0  0  0  0  0  0  0
    5.7653    7.8952    8.4335 C   0  0  0  0  0  0  0  0  0  0  0  0
   10.8215    5.8371    1.5524 C   0  0  0  0  0  0  0  0  0  0  0  0
    4.2956    7.6329    8.7070 C   0  0  0  0  0  0  0  0  0  0  0  0
   11.0370    6.7168    2.7743 C   0  0  0  0  0  0  0  0  0  0  0  0
    3.6453    8.7073    9.5629 C   0  0  0  0  0  0  0  0  0  0  0  0
   10.6495    6.0386    4.0809 C   0  0  0  0  0  0  0  0  0  0  0  0
    2.1284    8.5538    9.6016 C   0  0  0  0  0  0  0  0  0  0  0  0
   10.4489    7.0451    5.2043 C   0  0  0  0  0  0  0  0  0  0  0  0
    1.4006    9.3095    8.4961 C   0  0  0  0  0  0  0  0  0  0  0  0
    9.2892    7.9810    4.9012 C   0  0  0  0  0  0  0  0  0  0  0  0
    1.6258    8.7183    7.1122 C   0  0  0  0  0  0  0  0  0  0  0  0
    9.0023    8.9267    6.0531 C   0  0  0  0  0  0  0  0  0  0  0  0
    1.1049    7.2924    7.0026 C   0  0  0  0  0  0  0  0  0  0  0  0
    7.9325    9.9415    5.6794 C   0  0  0  0  0  0  0  0  0  0  0  0
    1.7185    6.5667    5.8155 C   0  0  0  0  0  0  0  0  0  0  0  0
    7.5411   10.7990    6.8615 C   0  0  0  0  0  0  0  0  0  0  0  0
    1.2044    5.1396    5.7164 C   0  0  0  0  0  0  0  0  0  0  0  0
    1.8465    4.3941    4.5687 C   0  0  0  0  0  0  0  0  0  0  0  0
  1  2  1  0  0  0  0 
  1  3  1  0  0  0  0 
  2  4  1  0  0  0  0 
  3  5  1  0  0  0  0 
  4  6  1  0  0  0  0 
  5  7  1  0  0  0  0 
  6  8  1  0  0  0  0 
  7  9  1  0  0  0  0 
  8 10  1  0  0  0  0 
  9 11  1  0  0  0  0 
 10 12  1  0  0  0  0 
 11 13  1  0  0  0  0 
 12 14  1  0  0  0  0 
 13 15  1  0  0  0  0 
 14 16  1  0  0  0  0 
 15 17  1  0  0  0  0 
 16 18  1  0  0  0  0 
 17 19  1  0  0  0  0 
 18 20  1  0  0  0  0 
 19 21  1  0  0  0  0 
 20 22  1  0  0  0  0 
 21 23  1  0  0  0  0 
 22 24  1  0  0  0  0 
 23 25  1  0  0  0  0 
 24 26  1  0  0  0  0 
 25 27  1  0  0  0  0 
 26 28  1  0  0  0  0 
 27 29  1  0  0  0  0 
 28 30  1  0  0  0  0 
 30 31  1  0  0  0  0 
M  END
> <Name>
HENTRIACONTANE

> <Source>
NIST3DMolFile

> <Tox>
-10.854

> <CAS>
630-04-6

$$$$

  CDK

 33 32  0  0  0  0  0  0  0  0999 V2000
   21.6699    3.2130    5.5467 C   0  0  0  0  0  0  0  0  0  0  0  0
   20.2870    2.6187    5.7593 C   0  0  0  0  0  0  0  0  0  0  0  0
   22.7299    2.4313    6.3057 C   0  0  0  0  0  0  0  0  0  0  0  0
   19.2271    3.3978    4.9974 C   0  0  0  0  0  0  0  0  0  0  0  0
   24.1135    3.0223    6.0891 C   0  0  0  0  0  0  0  0  0  0  0  0
   17.8454    2.7992    5.2055 C   0  0  0  0  0  0  0  0  0  0  0  0
   25.1734    2.2402    6.8481 C   0  0  0  0  0  0  0  0  0  0  0  0
   16.7846    3.5795    4.4462 C   0  0  0  0  0  0  0  0  0  0  0  0
   26.5574    2.8299    6.6301 C   0  0  0  0  0  0  0  0  0  0  0  0
   15.4042    2.9758    4.6481 C   0  0  0  0  0  0  0  0  0  0  0  0
   27.6172    2.0472    7.3886 C   0  0  0  0  0  0  0  0  0  0  0  0
   14.3430    3.7560    3.8893 C   0  0  0  0  0  0  0  0  0  0  0  0
   29.0017    2.6343    7.1676 C   0  0  0  0  0  0  0  0  0  0  0  0
   12.9638    3.1474    4.0856 C   0  0  0  0  0  0  0  0  0  0  0  0
   30.0614    1.8513    7.9256 C   0  0  0  0  0  0  0  0  0  0  0  0
   11.9020    3.9276    3.3276 C   0  0  0  0  0  0  0  0  0  0  0  0
   31.4464    2.4372    7.7032 C   0  0  0  0  0  0  0  0  0  0  0  0
   10.5237    3.3171    3.5219 C   0  0  0  0  0  0  0  0  0  0  0  0
   32.5060    1.6542    8.4615 C   0  0  0  0  0  0  0  0  0  0  0  0
    9.4610    4.0995    2.7671 C   0  0  0  0  0  0  0  0  0  0  0  0
   33.8913    2.2378    8.2360 C   0  0  0  0  0  0  0  0  0  0  0  0
    8.0833    3.4862    2.9583 C   0  0  0  0  0  0  0  0  0  0  0  0
   34.9511    1.4545    8.9938 C   0  0  0  0  0  0  0  0  0  0  0  0
    7.0202    4.2684    2.2039 C   0  0  0  0  0  0  0  0  0  0  0  0
   36.3370    2.0358    8.7655 C   0  0  0  0  0  0  0  0  0  0  0  0
    5.6430    3.6539    2.3943 C   0  0  0  0  0  0  0  0  0  0  0  0
   37.3963    1.2532    9.5244 C   0  0  0  0  0  0  0  0  0  0  0  0
    4.5792    4.4377    1.6426 C   0  0  0  0  0  0  0  0  0  0  0  0
   38.7839    1.8307    9.2940 C   0  0  0  0  0  0  0  0  0  0  0  0
    3.2025    3.8216    1.8309 C   0  0  0  0  0  0  0  0  0  0  0  0
   39.8392    1.0528   10.0471 C   0  0  0  0  0  0  0  0  0  0  0  0
    2.1371    4.6032    1.0786 C   0  0  0  0  0  0  0  0  0  0  0  0
    0.7665    3.9936    1.2675 C   0  0  0  0  0  0  0  0  0  0  0  0
  1  2  1  0  0  0  0 
  1  3  1  0  0  0  0 
  2  4  1  0  0  0  0 
  3  5  1  0  0  0  0 
  4  6  1  0  0  0  0 
  5  7  1  0  0  0  0 
  6  8  1  0  0  0  0 
  7  9  1  0  0  0  0 
  8 10  1  0  0  0  0 
  9 11  1  0  0  0  0 
 10 12  1  0  0  0  0 
 11 13  1  0  0  0  0 
 12 14  1  0  0  0  0 
 13 15  1  0  0  0  0 
 14 16  1  0  0  0  0 
 15 17  1  0  0  0  0 
 16 18  1  0  0  0  0 
 17 19  1  0  0  0  0 
 18 20  1  0  0  0  0 
 19 21  1  0  0  0  0 
 20 22  1  0  0  0  0 
 21 23  1  0  0  0  0 
 22 24  1  0  0  0  0 
 23 25  1  0  0  0  0 
 24 26  1  0  0  0  0 
 25 27  1  0  0  0  0 
 26 28  1  0  0  0  0 
 27 29  1  0  0  0  0 
 28 30  1  0  0  0  0 
 29 31  1  0  0  0  0 
 30 32  1  0  0  0  0 
 32 33  1  0  0  0  0 
M  END
> <Name>
TRITRIACONTANE

> <Source>
NIST3DMolFile

> <Tox>
-10.396

> <CAS>
630-05-7

$$$$

  CDK

 35 34  0  0  0  0  0  0  0  0999 V2000
   23.4980    1.3323    1.0620 C   0  0  0  0  0  0  0  0  0  0  0  0
   22.2328    1.1740    1.8896 C   0  0  0  0  0  0  0  0  0  0  0  0
   24.7427    1.1911    1.9232 C   0  0  0  0  0  0  0  0  0  0  0  0
   20.9879    1.3070    1.0274 C   0  0  0  0  0  0  0  0  0  0  0  0
   26.0082    1.3502    1.0962 C   0  0  0  0  0  0  0  0  0  0  0  0
   19.7229    1.1553    1.8565 C   0  0  0  0  0  0  0  0  0  0  0  0
   27.2526    1.2027    1.9567 C   0  0  0  0  0  0  0  0  0  0  0  0
   18.4777    1.2830    0.9939 C   0  0  0  0  0  0  0  0  0  0  0  0
   28.5184    1.3635    1.1303 C   0  0  0  0  0  0  0  0  0  0  0  0
   17.2129    1.1336    1.8237 C   0  0  0  0  0  0  0  0  0  0  0  0
   29.7626    1.2106    1.9901 C   0  0  0  0  0  0  0  0  0  0  0  0
   15.9676    1.2587    0.9609 C   0  0  0  0  0  0  0  0  0  0  0  0
   31.0285    1.3723    1.1644 C   0  0  0  0  0  0  0  0  0  0  0  0
   14.7028    1.1145    1.7917 C   0  0  0  0  0  0  0  0  0  0  0  0
   32.2726    1.2142    2.0234 C   0  0  0  0  0  0  0  0  0  0  0  0
   13.4574    1.2336    0.9283 C   0  0  0  0  0  0  0  0  0  0  0  0
   33.5387    1.3744    1.1976 C   0  0  0  0  0  0  0  0  0  0  0  0
   12.1928    1.0905    1.7595 C   0  0  0  0  0  0  0  0  0  0  0  0
   34.7827    1.2133    2.0564 C   0  0  0  0  0  0  0  0  0  0  0  0
   10.9474    1.2045    0.8954 C   0  0  0  0  0  0  0  0  0  0  0  0
   36.0489    1.3732    1.2307 C   0  0  0  0  0  0  0  0  0  0  0  0
    9.6829    1.0629    1.7272 C   0  0  0  0  0  0  0  0  0  0  0  0
   37.2927    1.2084    2.0889 C   0  0  0  0  0  0  0  0  0  0  0  0
    8.4374    1.1720    0.8625 C   0  0  0  0  0  0  0  0  0  0  0  0
   38.5590    1.3686    1.2635 C   0  0  0  0  0  0  0  0  0  0  0  0
    7.1729    1.0333    1.6947 C   0  0  0  0  0  0  0  0  0  0  0  0
   39.8028    1.2008    2.1212 C   0  0  0  0  0  0  0  0  0  0  0  0
    5.9274    1.1387    0.8296 C   0  0  0  0  0  0  0  0  0  0  0  0
   41.0692    1.3619    1.2962 C   0  0  0  0  0  0  0  0  0  0  0  0
    4.6629    1.0014    1.6621 C   0  0  0  0  0  0  0  0  0  0  0  0
   42.3142    1.1899    2.1517 C   0  0  0  0  0  0  0  0  0  0  0  0
    3.4174    1.1049    0.7970 C   0  0  0  0  0  0  0  0  0  0  0  0
   43.5753    1.3505    1.3331 C   0  0  0  0  0  0  0  0  0  0  0  0
    2.1518    0.9674    1.6280 C   0  0  0  0  0  0  0  0  0  0  0  0
    0.9116    1.0695    0.7692 C   0  0  0  0  0  0  0  0  0  0  0  0
  1  2  1  0  0  0  0 
  1  3  1  0  0  0  0 
  2  4  1  0  0  0  0 
  3  5  1  0  0  0  0 
  4  6  1  0  0  0  0 
  5  7  1  0  0  0  0 
  6  8  1  0  0  0  0 
  7  9  1  0  0  0  0 
  8 10  1  0  0  0  0 
  9 11  1  0  0  0  0 
 10 12  1  0  0  0  0 
 11 13  1  0  0  0  0 
 12 14  1  0  0  0  0 
 13 15  1  0  0  0  0 
 14 16  1  0  0  0  0 
 15 17  1  0  0  0  0 
 16 18  1  0  0  0  0 
 17 19  1  0  0  0  0 
 18 20  1  0  0  0  0 
 19 21  1  0  0  0  0 
 20 22  1  0  0  0  0 
 21 23  1  0  0  0  0 
 22 24  1  0  0  0  0 
 23 25  1  0  0  0  0 
 24 26  1  0  0  0  0 
 25 27  1  0  0  0  0 
 26 28  1  0  0  0  0 
 27 29  1  0  0  0  0 
 28 30  1  0  0  0  0 
 29 31  1  0  0  0  0 
 30 32  1  0  0  0  0 
 31 33  1  0  0  0  0 
 32 34  1  0  0  0  0 
 34 35  1  0  0  0  0 
M  END
> <Name>
N-PENTATRIACONTANE

> <Source>
NIST3DMolFile

> <Tox>
-11.268

> <CAS>
630-07-9

$$$$

  CDK

  6  5  0  0  0  0  0  0  0  0999 V2000
    0.8337    2.6197    2.9434 C   0  0  0  0  0  0  0  0  0  0  0  0
    0.0000    3.0908    3.5954 N   0  0  0  0  0  0  0  0  0  0  0  0
    1.8876    2.0242    2.1190 C   0  0  0  0  0  0  0  0  0  0  0  0
    1.5078    2.1777    0.6452 C   0  0  0  0  0  0  0  0  0  0  0  0
    3.2043    2.7498    2.4011 C   0  0  0  0  0  0  0  0  0  0  0  0
    2.0166    0.5427    2.4775 C   0  0  0  0  0  0  0  0  0  0  0  0
  1  2  3  0  0  0  0 
  1  3  1  0  0  0  0 
  3  4  1  0  0  0  0 
  3  5  1  0  0  0  0 
  3  6  1  0  0  0  0 
M  END
> <Name>
TRIMETHYLACETONITRILE

> <Source>
NIST3DMolFile

> <Tox>
1.538

> <CAS>
630-18-2

$$$$

  CDK

  6  5  0  0  0  0  0  0  0  0999 V2000
    1.8169   -2.3040    0.0000 Cl  0  0  0  0  0  0  0  0  0  0  0  0
    1.1503   -1.1537    0.0000 C   0  0  0  0  0  0  0  0  0  0  0  0
    2.3040   -0.4870    0.0000 C   0  0  0  0  0  0  0  0  0  0  0  0
    0.0000   -1.8169    0.0000 Cl  0  0  0  0  0  0  0  0  0  0  0  0
    0.4870   -0.0000    0.0000 Cl  0  0  0  0  0  0  0  0  0  0  0  0
    3.4542   -1.1537    0.0000 Cl  0  0  0  0  0  0  0  0  0  0  0  0
  1  2  1  0  0  0  0 
  2  3  1  0  0  0  0 
  2  4  1  0  0  0  0 
  2  5  1  0  0  0  0 
  3  6  1  0  0  0  0 
M  END
> <Name>
1,1,1,2-TETRACHLOROETHANE

> <Source>
DSSTox2DMolFile

> <Tox>
1.079

> <CAS>
630-20-6

$$$$

  CDK

 10 10  0  0  0  0  0  0  0  0999 V2000
    3.9887   -0.0000    0.0000 Cl  0  0  0  0  0  0  0  0  0  0  0  0
    3.3239   -1.1541    0.0000 C   0  0  0  0  0  0  0  0  0  0  0  0
    3.9887   -2.3081    0.0000 C   0  0  0  0  0  0  0  0  0  0  0  0
    1.9943   -1.1541    0.0000 C   0  0  0  0  0  0  0  0  0  0  0  0
    5.3182   -2.3081    0.0000 Cl  0  0  0  0  0  0  0  0  0  0  0  0
    3.3239   -3.4568    0.0000 C   0  0  0  0  0  0  0  0  0  0  0  0
    1.3296   -2.3081    0.0000 C   0  0  0  0  0  0  0  0  0  0  0  0
    1.3296   -0.0000    0.0000 Cl  0  0  0  0  0  0  0  0  0  0  0  0
    1.9943   -3.4568    0.0000 C   0  0  0  0  0  0  0  0  0  0  0  0
    0.0000   -2.3081    0.0000 Cl  0  0  0  0  0  0  0  0  0  0  0  0
  1  2  1  0  0  0  0 
  2  3  2  0  0  0  0 
  2  4  1  0  0  0  0 
  3  5  1  0  0  0  0 
  3  6  1  0  0  0  0 
  7  4  2  0  0  0  0 
  4  8  1  0  0  0  0 
  6  9  2  0  0  0  0 
  9  7  1  0  0  0  0 
  7 10  1  0  0  0  0 
M  END
> <Name>
1,2,3,4-TETRACHLOROBENZENE

> <Source>
DSSTox2DMolFile

> <Tox>
-1.409

> <CAS>
634-66-2

$$$$

  CDK

 10 10  0  0  0  0  0  0  0  0999 V2000
    5.3182   -2.3028    0.0000 Cl  0  0  0  0  0  0  0  0  0  0  0  0
    3.9887   -2.3028    0.0000 C   0  0  0  0  0  0  0  0  0  0  0  0
    3.3239   -3.4568    0.0000 C   0  0  0  0  0  0  0  0  0  0  0  0
    3.3239   -1.1487    0.0000 C   0  0  0  0  0  0  0  0  0  0  0  0
    3.9887   -4.6056    0.0000 Cl  0  0  0  0  0  0  0  0  0  0  0  0
    1.9943   -3.4568    0.0000 C   0  0  0  0  0  0  0  0  0  0  0  0
    1.9943   -1.1487    0.0000 C   0  0  0  0  0  0  0  0  0  0  0  0
    3.9887   -0.0000    0.0000 Cl  0  0  0  0  0  0  0  0  0  0  0  0
    1.3296   -2.3028    0.0000 C   0  0  0  0  0  0  0  0  0  0  0  0
    0.0000   -2.3028    0.0000 Cl  0  0  0  0  0  0  0  0  0  0  0  0
  1  2  1  0  0  0  0 
  2  3  2  0  0  0  0 
  2  4  1  0  0  0  0 
  3  5  1  0  0  0  0 
  3  6  1  0  0  0  0 
  7  4  2  0  0  0  0 
  4  8  1  0  0  0  0 
  6  9  2  0  0  0  0 
  9  7  1  0  0  0  0 
  9 10  1  0  0  0  0 
M  END
> <Name>
1,2,3,5-TETRACHLOROBENZENE

> <Source>
DSSTox2DMolFile

> <Tox>
-1.257

> <CAS>
634-90-2

$$$$

  CDK

  8  8  0  0  0  0  0  0  0  0999 V2000
    2.0093   -1.1978    0.0004 O   0  0  0  0  0  0  0  0  0  0  0  0
    1.4682    0.0621   -0.0003 C   0  0  0  0  0  0  0  0  0  0  0  0
    2.2132    1.0661    0.0005 O   0  0  0  0  0  0  0  0  0  0  0  0
    0.0392    0.0673   -0.0007 C   0  0  0  0  0  0  0  0  0  0  0  0
   -0.7272   -1.0687   -0.0006 N   0  0  0  0  0  0  0  0  0  0  0  0
   -0.8118    1.1505   -0.0003 C   0  0  0  0  0  0  0  0  0  0  0  0
   -2.0545   -0.7272    0.0007 C   0  0  0  0  0  0  0  0  0  0  0  0
   -2.1364    0.6477    0.0003 C   0  0  0  0  0  0  0  0  0  0  0  0
  1  2  1  0  0  0  0 
  3  2  2  0  0  0  0 
  4  2  1  0  0  0  0 
  5  4  1  0  0  0  0 
  4  6  2  0  0  0  0 
  5  7  1  0  0  0  0 
  6  8  1  0  0  0  0 
  7  8  2  0  0  0  0 
M  END
> <Name>
PYRROLE-2-CARBOXYLIC ACID

> <Source>
Chemidplus3DMolFile

> <Tox>
-5.648

> <CAS>
634-97-9

$$$$

  CDK

 18 18  0  0  0  0  0  0  0  0999 V2000
   -1.2080    0.6974    0.0002 C   0  0  0  0  0  0  0  0  0  0  0  0
   -1.2080   -0.6975    0.0002 C   0  0  0  0  0  0  0  0  0  0  0  0
   -2.4886    1.4654    0.0001 C   0  0  0  0  0  0  0  0  0  0  0  0
   -0.0002    1.3949    0.0000 C   0  0  0  0  0  0  0  0  0  0  0  0
   -2.4885   -1.4657    0.0001 C   0  0  0  0  0  0  0  0  0  0  0  0
    0.0000   -1.3950    0.0000 C   0  0  0  0  0  0  0  0  0  0  0  0
   -2.6518    2.3345   -1.2605 C   0  0  0  0  0  0  0  0  0  0  0  0
   -2.6521    2.3347    1.2604 C   0  0  0  0  0  0  0  0  0  0  0  0
    1.2078    0.6975   -0.0002 C   0  0  0  0  0  0  0  0  0  0  0  0
   -2.6515   -2.3351    1.2603 C   0  0  0  0  0  0  0  0  0  0  0  0
   -2.6519   -2.3346   -1.2605 C   0  0  0  0  0  0  0  0  0  0  0  0
    1.2080   -0.6974   -0.0002 C   0  0  0  0  0  0  0  0  0  0  0  0
    2.4883    1.4656   -0.0001 C   0  0  0  0  0  0  0  0  0  0  0  0
    2.4889   -1.4655   -0.0001 C   0  0  0  0  0  0  0  0  0  0  0  0
    2.6516    2.3345    1.2606 C   0  0  0  0  0  0  0  0  0  0  0  0
    2.6518    2.3350   -1.2603 C   0  0  0  0  0  0  0  0  0  0  0  0
    2.6519   -2.3347   -1.2604 C   0  0  0  0  0  0  0  0  0  0  0  0
    2.6523   -2.3342    1.2605 C   0  0  0  0  0  0  0  0  0  0  0  0
  1  2  2  0  0  0  0 
  1  3  1  0  0  0  0 
  1  4  1  0  0  0  0 
  2  5  1  0  0  0  0 
  2  6  1  0  0  0  0 
  3  7  1  0  0  0  0 
  3  8  1  0  0  0  0 
  9  4  2  0  0  0  0 
  5 10  1  0  0  0  0 
  5 11  1  0  0  0  0 
 12  6  2  0  0  0  0 
  9 12  1  0  0  0  0 
  9 13  1  0  0  0  0 
 12 14  1  0  0  0  0 
 13 15  1  0  0  0  0 
 13 16  1  0  0  0  0 
 14 17  1  0  0  0  0 
 14 18  1  0  0  0  0 
M  END
> <Name>
BENZENE, 1,2,4,5-TETRAKIS(1-METHYLETHYL)-

> <Source>
Chemidplus3DMolFile

> <Tox>
-2.699

> <CAS>
635-11-0

$$$$

  CDK

  8  7  0  0  0  0  0  0  0  0999 V2000
    2.6096    1.5056    0.0000 O   0  0  0  0  0  0  0  0  0  0  0  0
    1.7063    1.0037    0.0000 C   0  0  0  0  0  0  0  0  0  0  0  0
    3.4628    1.0037    0.0000 C   0  0  0  0  0  0  0  0  0  0  0  0
    0.8531    1.5056    0.0000 C   0  0  0  0  0  0  0  0  0  0  0  0
    1.7063    0.0000    0.0000 O   0  0  0  0  0  0  0  0  0  0  0  0
    3.4628    0.0000    0.0000 C   0  0  0  0  0  0  0  0  0  0  0  0
    4.3159    1.5056    0.0000 C   0  0  0  0  0  0  0  0  0  0  0  0
    0.0000    1.0037    0.0000 C   0  0  0  0  0  0  0  0  0  0  0  0
  1  2  1  0  0  0  0 
  1  3  1  0  0  0  0 
  2  4  1  0  0  0  0 
  2  5  2  0  0  0  0 
  3  6  1  0  0  0  0 
  3  7  1  0  0  0  0 
  4  8  1  0  0  0  0 
M  END
> <Name>
ISOPROPYL PROPIONATE

> <Source>
NIST2DMolFile

> <Tox>
1.352

> <CAS>
637-78-5

$$$$

  CDK

  8  8  0  0  0  0  0  0  0  0999 V2000
    0.0000    0.8559    0.0000 Cl  0  0  0  0  0  0  0  0  0  0  0  0
    1.0070    0.8559    0.0000 C   0  0  0  0  0  0  0  0  0  0  0  0
    1.5105    1.7119    0.0000 C   0  0  0  0  0  0  0  0  0  0  0  0
    1.5105    0.0000    0.0000 C   0  0  0  0  0  0  0  0  0  0  0  0
    2.5174    1.7119    0.0000 C   0  0  0  0  0  0  0  0  0  0  0  0
    2.5174    0.0000    0.0000 C   0  0  0  0  0  0  0  0  0  0  0  0
    3.0209    0.8559    0.0000 C   0  0  0  0  0  0  0  0  0  0  0  0
    4.0279    0.8559    0.0000 I   0  0  0  0  0  0  0  0  0  0  0  0
  1  2  1  0  0  0  0 
  3  2  2  0  0  0  0 
  2  4  1  0  0  0  0 
  5  3  1  0  0  0  0 
  4  6  2  0  0  0  0 
  7  5  2  0  0  0  0 
  6  7  1  0  0  0  0 
  7  8  1  0  0  0  0 
M  END
> <Name>
4-CHLOROIODOBENZENE

> <Source>
NIST2DMolFile

> <Tox>
-1.230

> <CAS>
637-87-6

$$$$

  CDK

  7  6  0  0  0  0  0  0  0  0999 V2000
    2.3050   -1.8163    0.0000 O   0  0  0  0  0  0  0  0  0  0  0  0
    3.4575   -1.1525    0.0000 C   0  0  0  0  0  0  0  0  0  0  0  0
    1.1525   -1.1525    0.0000 C   0  0  0  0  0  0  0  0  0  0  0  0
    4.1213   -2.3050    0.0000 C   0  0  0  0  0  0  0  0  0  0  0  0
    2.7936   -0.0000    0.0000 C   0  0  0  0  0  0  0  0  0  0  0  0
    4.6099   -0.4887    0.0000 C   0  0  0  0  0  0  0  0  0  0  0  0
    0.0000   -1.8163    0.0000 C   0  0  0  0  0  0  0  0  0  0  0  0
  1  2  1  0  0  0  0 
  1  3  1  0  0  0  0 
  2  4  1  0  0  0  0 
  2  5  1  0  0  0  0 
  2  6  1  0  0  0  0 
  3  7  1  0  0  0  0 
M  END
> <Name>
ETHYL T-BUTYL ETHER

> <Source>
DSSTox2DMolFile

> <Tox>
2.093

> <CAS>
637-92-3

$$$$

  CDK

  6  5  0  0  0  0  0  0  0  0999 V2000
    0.0000    0.0000    0.0000 C   0  0  0  0  0  0  0  0  0  0  0  0
   -0.4000   -0.6600   -1.3000 C   0  0  0  0  0  0  0  0  0  0  0  0
    0.2200    0.0000   -2.5200 C   0  0  0  0  0  0  0  0  0  0  0  0
   -2.5600   -0.6200   -1.5000 I   0  0  0  0  0  0  0  0  0  0  0  0
    0.3000   -0.9400   -3.7400 C   0  0  0  0  0  0  0  0  0  0  0  0
   -0.4800   -0.4000   -4.9400 C   0  0  0  0  0  0  0  0  0  0  0  0
  1  2  1  0  0  0  0 
  2  3  1  0  0  0  0 
  2  4  1  0  0  0  0 
  3  5  1  0  0  0  0 
  5  6  1  0  0  0  0 
M  END
> <Name>
2-IODOPENTANE

> <Source>
NIH3DMolFile

> <Tox>
1.041

> <CAS>
637-97-8

$$$$

  CDK

  7  7  0  0  0  0  0  0  0  0999 V2000
    0.9091    0.9596    0.0000 C   0  0  0  0  0  0  0  0  0  0  0  0
    0.0000    1.3132    0.0000 C   0  0  0  0  0  0  0  0  0  0  0  0
    1.7678    1.5657    0.0000 S   0  0  0  0  0  0  0  0  0  0  0  0
    1.2627    0.0000    0.0000 C   0  0  0  0  0  0  0  0  0  0  0  0
    2.5759    0.9596    0.0000 C   0  0  0  0  0  0  0  0  0  0  0  0
    2.2223    0.0000    0.0000 C   0  0  0  0  0  0  0  0  0  0  0  0
    3.4850    1.2627    0.0000 C   0  0  0  0  0  0  0  0  0  0  0  0
  1  2  1  0  0  0  0 
  1  3  1  0  0  0  0 
  4  1  2  0  0  0  0 
  3  5  1  0  0  0  0 
  6  4  1  0  0  0  0 
  5  6  2  0  0  0  0 
  5  7  1  0  0  0  0 
M  END
> <Name>
2,5-DIMETHYLTHIOPHENE

> <Source>
NIST2DMolFile

> <Tox>
0.994

> <CAS>
638-02-8

$$$$

  CDK

  8  8  0  0  0  0  0  0  0  0999 V2000
    1.0674    2.0254    5.6443 C   0  0  0  0  0  0  0  0  0  0  0  0
    1.9237    1.5242    4.4947 C   0  0  0  0  0  0  0  0  0  0  0  0
    1.6913    2.3711    3.2441 C   0  0  0  0  0  0  0  0  0  0  0  0
    3.4033    1.5452    4.8769 C   0  0  0  0  0  0  0  0  0  0  0  0
    2.5540    1.8835    2.0810 C   0  0  0  0  0  0  0  0  0  0  0  0
    4.2698    1.0669    3.7230 C   0  0  0  0  0  0  0  0  0  0  0  0
    2.3196    2.7397    0.8487 C   0  0  0  0  0  0  0  0  0  0  0  0
    4.0301    1.9025    2.4760 C   0  0  0  0  0  0  0  0  0  0  0  0
  1  2  1  0  0  0  0 
  2  3  1  0  0  0  0 
  4  2  1  0  0  0  0 
  5  3  1  0  0  0  0 
  4  6  1  0  0  0  0 
  5  7  1  0  0  0  0 
  5  8  1  0  0  0  0 
  8  6  1  0  0  0  0 
M  END
> <Name>
1,3-DIMETHYLCYCLOHEXANE (CIS)

> <Source>
NIST3DMolFile

> <Tox>
1.332

> <CAS>
638-04-0

$$$$

  CDK

  7  6  0  0  0  0  0  0  0  0999 V2000
    1.7073    1.5065    0.0000 C   0  0  0  0  0  0  0  0  0  0  0  0
    0.8537    1.0043    0.0000 C   0  0  0  0  0  0  0  0  0  0  0  0
    2.6112    1.0043    0.0000 C   0  0  0  0  0  0  0  0  0  0  0  0
    0.8537    0.0000    0.0000 C   0  0  0  0  0  0  0  0  0  0  0  0
    0.0000    1.5065    0.0000 Cl  0  0  0  0  0  0  0  0  0  0  0  0
    3.4649    1.5065    0.0000 C   0  0  0  0  0  0  0  0  0  0  0  0
    4.3186    1.0043    0.0000 C   0  0  0  0  0  0  0  0  0  0  0  0
  1  2  1  0  0  0  0 
  1  3  1  0  0  0  0 
  2  4  1  0  0  0  0 
  2  5  1  0  0  0  0 
  3  6  1  0  0  0  0 
  6  7  1  0  0  0  0 
M  END
> <Name>
2-CHLOROHEXANE

> <Source>
NIST2DMolFile

> <Tox>
1.134

> <CAS>
638-28-8

$$$$

  CDK

  7  6  0  0  0  0  0  0  0  0999 V2000
    0.0000    0.0000    0.0000 C   0  0  0  0  0  0  0  0  0  0  0  0
    0.9286    0.4643    0.0000 C   0  0  0  0  0  0  0  0  0  0  0  0
    1.8057    0.0000    0.0000 C   0  0  0  0  0  0  0  0  0  0  0  0
    2.6827    0.4643    0.0000 C   0  0  0  0  0  0  0  0  0  0  0  0
    3.5597    0.0000    0.0000 C   0  0  0  0  0  0  0  0  0  0  0  0
    4.4367    0.4643    0.0000 C   0  0  0  0  0  0  0  0  0  0  0  0
    5.3138    0.0000    0.0000 I   0  0  0  0  0  0  0  0  0  0  0  0
  1  2  1  0  0  0  0 
  2  3  1  0  0  0  0 
  3  4  1  0  0  0  0 
  4  5  1  0  0  0  0 
  5  6  1  0  0  0  0 
  6  7  1  0  0  0  0 
M  END
> <Name>
1-IODOHEXANE

> <Source>
NIST2DMolFile

> <Tox>
0.146

> <CAS>
638-45-9

$$$$

  CDK

 23 22  0  0  0  0  0  0  0  0999 V2000
    5.9894    6.8466    4.9921 C   0  0  0  0  0  0  0  0  0  0  0  0
    4.6478    6.2577    4.6033 C   0  0  0  0  0  0  0  0  0  0  0  0
    6.9800    6.7490    3.8411 C   0  0  0  0  0  0  0  0  0  0  0  0
    3.5623    6.5346    5.6319 C   0  0  0  0  0  0  0  0  0  0  0  0
    8.3824    7.1373    4.2847 C   0  0  0  0  0  0  0  0  0  0  0  0
    2.2387    5.9050    5.2174 C   0  0  0  0  0  0  0  0  0  0  0  0
    8.9693    6.0776    5.2064 C   0  0  0  0  0  0  0  0  0  0  0  0
    1.7151    6.4653    3.8986 C   0  0  0  0  0  0  0  0  0  0  0  0
    9.2890    4.8041    4.4428 C   0  0  0  0  0  0  0  0  0  0  0  0
    1.0502    5.3863    3.0537 C   0  0  0  0  0  0  0  0  0  0  0  0
    9.7108    3.6765    5.3701 C   0  0  0  0  0  0  0  0  0  0  0  0
    1.1127    5.6966    1.5634 C   0  0  0  0  0  0  0  0  0  0  0  0
   10.2415    2.4858    4.5869 C   0  0  0  0  0  0  0  0  0  0  0  0
    2.5485    5.7516    1.0561 C   0  0  0  0  0  0  0  0  0  0  0  0
   11.5386    2.8209    3.8668 C   0  0  0  0  0  0  0  0  0  0  0  0
    3.2633    4.4163    1.2064 C   0  0  0  0  0  0  0  0  0  0  0  0
   11.9408    1.7176    2.9033 C   0  0  0  0  0  0  0  0  0  0  0  0
    4.7747    4.5842    1.2137 C   0  0  0  0  0  0  0  0  0  0  0  0
   13.2388    2.0522    2.1865 C   0  0  0  0  0  0  0  0  0  0  0  0
    5.4720    3.2767    1.5502 C   0  0  0  0  0  0  0  0  0  0  0  0
   13.6380    0.9573    1.2232 C   0  0  0  0  0  0  0  0  0  0  0  0
    6.9649    3.4711    1.7625 C   0  0  0  0  0  0  0  0  0  0  0  0
    7.6562    2.1459    1.9913 C   0  0  0  0  0  0  0  0  0  0  0  0
  1  2  1  0  0  0  0 
  1  3  1  0  0  0  0 
  2  4  1  0  0  0  0 
  3  5  1  0  0  0  0 
  4  6  1  0  0  0  0 
  5  7  1  0  0  0  0 
  6  8  1  0  0  0  0 
  7  9  1  0  0  0  0 
  8 10  1  0  0  0  0 
  9 11  1  0  0  0  0 
 10 12  1  0  0  0  0 
 11 13  1  0  0  0  0 
 12 14  1  0  0  0  0 
 13 15  1  0  0  0  0 
 14 16  1  0  0  0  0 
 15 17  1  0  0  0  0 
 16 18  1  0  0  0  0 
 17 19  1  0  0  0  0 
 18 20  1  0  0  0  0 
 19 21  1  0  0  0  0 
 20 22  1  0  0  0  0 
 22 23  1  0  0  0  0 
M  END
> <Name>
TRICOSANE

> <Source>
NIST3DMolFile

> <Tox>
-4.759

> <CAS>
638-67-5

$$$$

  CDK

 10 10  0  0  0  0  0  0  0  0999 V2000
   -0.7490    0.9295    0.0696 C   0  0  0  0  0  0  0  0  0  0  0  0
   -0.0056   -0.2370    0.3290 C   0  0  0  0  0  0  0  0  0  0  0  0
   -2.1138    0.8568   -0.2453 C   0  0  0  0  0  0  0  0  0  0  0  0
   -0.0880    2.1270    0.1372 O   0  0  0  0  0  0  0  0  0  0  0  0
   -0.6618   -1.4664    0.2592 C   0  0  0  0  0  0  0  0  0  0  0  0
    1.4493   -0.1998    0.6703 C   0  0  0  0  0  0  0  0  0  0  0  0
   -2.7376   -0.3819   -0.3064 C   0  0  0  0  0  0  0  0  0  0  0  0
   -2.0137   -1.5420   -0.0556 C   0  0  0  0  0  0  0  0  0  0  0  0
    2.3097   -0.2946   -0.5835 C   0  0  0  0  0  0  0  0  0  0  0  0
    3.7822   -0.2813   -0.2410 C   0  0  0  0  0  0  0  0  0  0  0  0
  1  2  1  0  0  0  0 
  1  3  2  0  0  0  0 
  1  4  1  0  0  0  0 
  2  5  2  0  0  0  0 
  2  6  1  0  0  0  0 
  7  3  1  0  0  0  0 
  5  8  1  0  0  0  0 
  6  9  1  0  0  0  0 
  8  7  2  0  0  0  0 
  9 10  1  0  0  0  0 
M  END
> <Name>
O-PROPYLPHENOL

> <Source>
DougDB3DMolFile

> <Tox>
-1.046

> <CAS>
644-35-9

$$$$

  CDK

 14 15  0  0  0  0  0  0  0  0999 V2000
    0.6650   -1.1571    0.0000 C   0  0  0  0  0  0  0  0  0  0  0  0
    0.0000   -2.3076    0.0000 C   0  0  0  0  0  0  0  0  0  0  0  0
    1.9950   -1.1571    0.0000 C   0  0  0  0  0  0  0  0  0  0  0  0
    0.6650   -3.4580    0.0000 C   0  0  0  0  0  0  0  0  0  0  0  0
    2.6600   -2.3076    0.0000 C   0  0  0  0  0  0  0  0  0  0  0  0
    2.6600   -0.0000    0.0000 C   0  0  0  0  0  0  0  0  0  0  0  0
    1.9950   -3.4580    0.0000 C   0  0  0  0  0  0  0  0  0  0  0  0
    3.9901   -0.0000    0.0000 C   0  0  0  0  0  0  0  0  0  0  0  0
    4.6551   -1.1571    0.0000 C   0  0  0  0  0  0  0  0  0  0  0  0
    3.9901   -2.3076    0.0000 C   0  0  0  0  0  0  0  0  0  0  0  0
    5.9851   -1.1571    0.0000 C   0  0  0  0  0  0  0  0  0  0  0  0
    4.6551   -3.4580    0.0000 C   0  0  0  0  0  0  0  0  0  0  0  0
    6.6501   -2.3076    0.0000 C   0  0  0  0  0  0  0  0  0  0  0  0
    5.9851   -3.4580    0.0000 C   0  0  0  0  0  0  0  0  0  0  0  0
  1  2  1  0  0  0  0 
  1  3  2  0  0  0  0 
  2  4  2  0  0  0  0 
  5  3  1  0  0  0  0 
  3  6  1  0  0  0  0 
  4  7  1  0  0  0  0 
  7  5  2  0  0  0  0 
  6  8  2  0  0  0  0 
  9  8  1  0  0  0  0 
 10  9  1  0  0  0  0 
 11  9  2  0  0  0  0 
 10 12  2  0  0  0  0 
 13 11  1  0  0  0  0 
 12 14  1  0  0  0  0 
 14 13  2  0  0  0  0 
M  END
> <Name>
1,1'-(1,2-ETHENEDIYL)BISBENZENE (CIS)

> <Source>
DSSTox2DMolFile

> <Tox>
-2.164

> <CAS>
645-49-8

$$$$

  CDK

  9  8  0  0  0  0  0  0  0  0999 V2000
    0.0000   -1.9987    0.0000 O   0  0  0  0  0  0  0  0  0  0  0  0
    1.1520   -2.6611    0.0000 C   0  0  0  0  0  0  0  0  0  0  0  0
    2.3040   -1.9987    0.0000 C   0  0  0  0  0  0  0  0  0  0  0  0
    3.4560   -2.6611    0.0000 C   0  0  0  0  0  0  0  0  0  0  0  0
    2.3040   -0.6682    0.0000 C   0  0  0  0  0  0  0  0  0  0  0  0
    4.6080   -1.9987    0.0000 C   0  0  0  0  0  0  0  0  0  0  0  0
    1.1520   -0.0000    0.0000 C   0  0  0  0  0  0  0  0  0  0  0  0
    4.6080   -0.6682    0.0000 C   0  0  0  0  0  0  0  0  0  0  0  0
    5.7600   -0.0000    0.0000 C   0  0  0  0  0  0  0  0  0  0  0  0
  1  2  2  0  0  0  0 
  2  3  1  0  0  0  0 
  3  4  2  0  0  0  0 
  3  5  1  0  0  0  0 
  4  6  1  0  0  0  0 
  5  7  1  0  0  0  0 
  6  8  1  0  0  0  0 
  8  9  1  0  0  0  0 
M  END
> <Name>
2-ETHYL-2-HEXENAL

> <Source>
DSSTox2DMolFile

> <Tox>
0.107

> <CAS>
645-62-5

$$$$

  CDK

 24 23  0  0  0  0  0  0  0  0999 V2000
    3.2141    4.6775    7.8276 C   0  0  0  0  0  0  0  0  0  0  0  0
    1.9443    4.6254    6.9901 C   0  0  0  0  0  0  0  0  0  0  0  0
    4.4212    4.9855    6.9576 C   0  0  0  0  0  0  0  0  0  0  0  0
    1.6239    5.9723    6.3542 C   0  0  0  0  0  0  0  0  0  0  0  0
    5.7252    4.9753    7.7364 C   0  0  0  0  0  0  0  0  0  0  0  0
    0.7215    5.8529    5.1327 C   0  0  0  0  0  0  0  0  0  0  0  0
    6.9137    5.2227    6.8186 C   0  0  0  0  0  0  0  0  0  0  0  0
    1.4856    5.6757    3.8276 C   0  0  0  0  0  0  0  0  0  0  0  0
    7.0779    4.1347    5.7665 C   0  0  0  0  0  0  0  0  0  0  0  0
    1.9498    4.2454    3.5904 C   0  0  0  0  0  0  0  0  0  0  0  0
    7.8716    2.9353    6.2626 C   0  0  0  0  0  0  0  0  0  0  0  0
    2.9403    4.1653    2.4406 C   0  0  0  0  0  0  0  0  0  0  0  0
    9.3120    3.2847    6.6217 C   0  0  0  0  0  0  0  0  0  0  0  0
    4.2343    4.9006    2.7593 C   0  0  0  0  0  0  0  0  0  0  0  0
   10.2953    3.0727    5.4804 C   0  0  0  0  0  0  0  0  0  0  0  0
    5.2275    4.8213    1.6102 C   0  0  0  0  0  0  0  0  0  0  0  0
   10.1636    4.1094    4.3757 C   0  0  0  0  0  0  0  0  0  0  0  0
    5.6804    3.3938    1.3305 C   0  0  0  0  0  0  0  0  0  0  0  0
   10.9416    3.7014    3.1357 C   0  0  0  0  0  0  0  0  0  0  0  0
    6.8119    2.9565    2.2453 C   0  0  0  0  0  0  0  0  0  0  0  0
   10.8009    4.7347    2.0296 C   0  0  0  0  0  0  0  0  0  0  0  0
    7.1792    1.4976    2.0259 C   0  0  0  0  0  0  0  0  0  0  0  0
   11.5835    4.3380    0.7984 C   0  0  0  0  0  0  0  0  0  0  0  0
    8.2958    1.0675    2.9500 C   0  0  0  0  0  0  0  0  0  0  0  0
  1  2  1  0  0  0  0 
  1  3  1  0  0  0  0 
  2  4  1  0  0  0  0 
  3  5  1  0  0  0  0 
  4  6  1  0  0  0  0 
  5  7  1  0  0  0  0 
  6  8  1  0  0  0  0 
  7  9  1  0  0  0  0 
  8 10  1  0  0  0  0 
  9 11  1  0  0  0  0 
 10 12  1  0  0  0  0 
 11 13  1  0  0  0  0 
 12 14  1  0  0  0  0 
 13 15  1  0  0  0  0 
 14 16  1  0  0  0  0 
 15 17  1  0  0  0  0 
 16 18  1  0  0  0  0 
 17 19  1  0  0  0  0 
 18 20  1  0  0  0  0 
 19 21  1  0  0  0  0 
 20 22  1  0  0  0  0 
 21 23  1  0  0  0  0 
 22 24  1  0  0  0  0 
M  END
> <Name>
TETRACOSANE

> <Source>
NIST3DMolFile

> <Tox>
-5.390

> <CAS>
646-31-1

$$$$

  CDK

 12 11  0  0  0  0  0  0  0  0999 V2000
    3.4575    1.5033    0.0000 O   0  0  0  0  0  0  0  0  0  0  0  0
    4.3094    1.0022    0.0000 C   0  0  0  0  0  0  0  0  0  0  0  0
    2.6057    1.0022    0.0000 C   0  0  0  0  0  0  0  0  0  0  0  0
    5.2113    1.5033    0.0000 C   0  0  0  0  0  0  0  0  0  0  0  0
    4.3094    0.0000    0.0000 O   0  0  0  0  0  0  0  0  0  0  0  0
    1.7037    1.5033    0.0000 C   0  0  0  0  0  0  0  0  0  0  0  0
    6.0632    1.0022    0.0000 C   0  0  0  0  0  0  0  0  0  0  0  0
    0.8519    1.0022    0.0000 C   0  0  0  0  0  0  0  0  0  0  0  0
    6.0632    0.0000    0.0000 C   0  0  0  0  0  0  0  0  0  0  0  0
    6.9151    1.5033    0.0000 C   0  0  0  0  0  0  0  0  0  0  0  0
    0.8519    0.0000    0.0000 C   0  0  0  0  0  0  0  0  0  0  0  0
    0.0000    1.5033    0.0000 C   0  0  0  0  0  0  0  0  0  0  0  0
  1  2  1  0  0  0  0 
  1  3  1  0  0  0  0 
  2  4  1  0  0  0  0 
  2  5  2  0  0  0  0 
  3  6  1  0  0  0  0 
  4  7  1  0  0  0  0 
  6  8  1  0  0  0  0 
  7  9  1  0  0  0  0 
  7 10  1  0  0  0  0 
  8 11  1  0  0  0  0 
  8 12  1  0  0  0  0 
M  END
> <Name>
ISOAMYL ISOVALERATE

> <Source>
NIST2DMolFile

> <Tox>
-0.053

> <CAS>
659-70-1

$$$$

  CDK

  9  9  0  0  0  0  0  0  0  0999 V2000
    2.4916    0.8995   -1.1380 Cl  0  0  0  0  0  0  0  0  0  0  0  0
    1.7393    0.2435    0.3548 C   0  0  0  0  0  0  0  0  0  0  0  0
    0.2645    0.1103    0.1761 C   0  0  0  0  0  0  0  0  0  0  0  0
    2.4574   -1.0586    0.7309 C   0  0  0  0  0  0  0  0  0  0  0  0
   -0.5721    1.1916    0.4529 C   0  0  0  0  0  0  0  0  0  0  0  0
   -0.2782   -1.0956   -0.2682 C   0  0  0  0  0  0  0  0  0  0  0  0
   -1.9512    1.0673    0.2856 C   0  0  0  0  0  0  0  0  0  0  0  0
   -1.6575   -1.2198   -0.4355 C   0  0  0  0  0  0  0  0  0  0  0  0
   -2.4939   -0.1383   -0.1586 C   0  0  0  0  0  0  0  0  0  0  0  0
  1  2  1  0  0  0  0 
  2  3  1  0  0  0  0 
  2  4  1  0  0  0  0 
  3  5  2  0  0  0  0 
  3  6  1  0  0  0  0 
  5  7  1  0  0  0  0 
  6  8  2  0  0  0  0 
  7  9  2  0  0  0  0 
  8  9  1  0  0  0  0 
M  END
> <Name>
(1-CHLOROETHYL)BENZENE

> <Source>
Chemidplus3DMolFile

> <Tox>
-0.187

> <CAS>
672-65-1

$$$$

  CDK

  6  5  0  0  0  0  0  0  0  0999 V2000
    2.1173    1.7906    3.1846 C   0  0  0  0  0  0  0  0  0  0  0  0
    2.3809    1.2909    1.8005 C   0  0  0  0  0  0  0  0  0  0  0  0
    0.9202    1.9075    3.7576 C   0  0  0  0  0  0  0  0  0  0  0  0
    3.0663    2.3891    1.0000 C   0  0  0  0  0  0  0  0  0  0  0  0
    1.1532    0.8001    1.0530 C   0  0  0  0  0  0  0  0  0  0  0  0
    0.7377    2.4057    5.1399 C   0  0  0  0  0  0  0  0  0  0  0  0
  1  2  1  0  0  0  0 
  1  3  2  0  0  0  0 
  2  4  1  0  0  0  0 
  2  5  1  0  0  0  0 
  3  6  1  0  0  0  0 
M  END
> <Name>
TRANS-4-METHYL-2-PENTENE

> <Source>
NIST3DMolFile

> <Tox>
2.348

> <CAS>
674-76-0

$$$$

  CDK

  6  6  0  0  0  0  0  0  0  0999 V2000
    2.2754   -0.9475    0.0000 O   0  0  0  0  0  0  0  0  0  0  0  0
    2.2754   -2.2754    0.0000 C   0  0  0  0  0  0  0  0  0  0  0  0
    0.9475   -0.9475    0.0000 C   0  0  0  0  0  0  0  0  0  0  0  0
    0.9475   -2.2754    0.0000 C   0  0  0  0  0  0  0  0  0  0  0  0
    3.2229   -3.2068    0.0000 O   0  0  0  0  0  0  0  0  0  0  0  0
    0.0000   -0.0000    0.0000 C   0  0  0  0  0  0  0  0  0  0  0  0
  1  2  1  0  0  0  0 
  1  3  1  0  0  0  0 
  2  4  1  0  0  0  0 
  2  5  2  0  0  0  0 
  4  3  1  0  0  0  0 
  3  6  2  0  0  0  0 
M  END
> <Name>
DIKETENE

> <Source>
DSSTox2DMolFile

> <Tox>
1.029

> <CAS>
674-82-8

$$$$

  CDK

  7  7  0  0  0  0  0  0  0  0999 V2000
    0.0000    0.5091    0.0000 C   0  0  0  0  0  0  0  0  0  0  0  0
    0.0000    1.4764    0.0000 C   0  0  0  0  0  0  0  0  0  0  0  0
    0.9164    0.0000    0.0000 C   0  0  0  0  0  0  0  0  0  0  0  0
    0.9164    1.9855    0.0000 C   0  0  0  0  0  0  0  0  0  0  0  0
    1.7819    0.5091    0.0000 N   0  0  0  0  0  0  0  0  0  0  0  0
    1.7819    1.4764    0.0000 C   0  0  0  0  0  0  0  0  0  0  0  0
    2.5964    1.9855    0.0000 O   0  0  0  0  0  0  0  0  0  0  0  0
  1  2  1  0  0  0  0 
  3  1  1  0  0  0  0 
  2  4  1  0  0  0  0 
  5  3  1  0  0  0  0 
  4  6  1  0  0  0  0 
  6  5  1  0  0  0  0 
  6  7  2  0  0  0  0 
M  END
> <Name>
DELTA-VALEROLACTAM

> <Source>
NIST2DMolFile

> <Tox>
-2.359

> <CAS>
675-20-7

$$$$

  CDK

  6  5  0  0  0  0  0  0  0  0999 V2000
    2.0436    1.0218    0.0000 C   0  0  0  0  0  0  0  0  0  0  0  0
    0.9707    1.0218    0.0000 C   0  0  0  0  0  0  0  0  0  0  0  0
    2.5545    1.8392    0.0000 C   0  0  0  0  0  0  0  0  0  0  0  0
    0.9707    0.0000    0.0000 F   0  0  0  0  0  0  0  0  0  0  0  0
    0.9707    1.9925    0.0000 F   0  0  0  0  0  0  0  0  0  0  0  0
    0.0000    1.0218    0.0000 F   0  0  0  0  0  0  0  0  0  0  0  0
  1  2  1  0  0  0  0 
  1  3  2  0  0  0  0 
  2  4  1  0  0  0  0 
  2  5  1  0  0  0  0 
  2  6  1  0  0  0  0 
M  END
> <Name>
3,3,3-TRIFLUORO-1-PROPENE

> <Source>
NIST2DMolFile

> <Tox>
3.642

> <CAS>
677-21-4

$$$$

  CDK

  8  7  0  0  0  0  0  0  0  0999 V2000
    0.2172    0.2955    1.3503 F   0  0  0  0  0  0  0  0  0  0  0  0
    0.2172    0.2031   -0.0031 C   0  0  0  0  0  0  0  0  0  0  0  0
    0.5039    1.4379   -0.4854 F   0  0  0  0  0  0  0  0  0  0  0  0
   -1.1594   -0.2020   -0.4712 C   0  0  0  0  0  0  0  0  0  0  0  0
    1.2974   -0.7621   -0.4335 C   0  0  0  0  0  0  0  0  0  0  0  0
   -2.0666    0.7073   -0.0334 F   0  0  0  0  0  0  0  0  0  0  0  0
   -1.5058   -1.3935    0.0728 F   0  0  0  0  0  0  0  0  0  0  0  0
    2.4960   -0.2864    0.0035 F   0  0  0  0  0  0  0  0  0  0  0  0
  1  2  1  0  0  0  0 
  3  2  1  0  0  0  0 
  2  4  1  0  0  0  0 
  2  5  1  0  0  0  0 
  6  4  1  0  0  0  0 
  7  4  1  0  0  0  0 
  8  5  1  0  0  0  0 
M  END
> <Name>
HFC-245 (pentafluoropropane)

> <Source>
Chemidplus3DMolFile

> <Tox>
2.878

> <CAS>
679-86-7

$$$$

  CDK

 11 10  0  0  0  0  0  0  0  0999 V2000
    1.3337   -1.9906    0.0000 P   0  0  0  0  0  0  0  0  0  0  0  0
    1.3337   -0.6569    0.0000 N   0  0  0  0  0  0  0  0  0  0  0  0
    1.3337   -3.3243    0.0000 N   0  0  0  0  0  0  0  0  0  0  0  0
    2.6634   -1.9906    0.0000 N   0  0  0  0  0  0  0  0  0  0  0  0
    0.0000   -1.9906    0.0000 O   0  0  0  0  0  0  0  0  0  0  0  0
    2.4882   -0.0000    0.0000 C   0  0  0  0  0  0  0  0  0  0  0  0
    0.1911   -0.0000    0.0000 C   0  0  0  0  0  0  0  0  0  0  0  0
    0.1752   -3.9812    0.0000 C   0  0  0  0  0  0  0  0  0  0  0  0
    2.4723   -3.9812    0.0000 C   0  0  0  0  0  0  0  0  0  0  0  0
    3.3402   -3.1610    0.0000 C   0  0  0  0  0  0  0  0  0  0  0  0
    3.3402   -0.8520    0.0000 C   0  0  0  0  0  0  0  0  0  0  0  0
  1  2  1  0  0  0  0 
  1  3  1  0  0  0  0 
  1  4  1  0  0  0  0 
  1  5  2  0  0  0  0 
  2  6  1  0  0  0  0 
  2  7  1  0  0  0  0 
  3  8  1  0  0  0  0 
  3  9  1  0  0  0  0 
  4 10  1  0  0  0  0 
  4 11  1  0  0  0  0 
M  END
> <Name>
HEXAMETHYLPHOSPHORAMIDE

> <Source>
DSSTox2DMolFile

> <Tox>
-1.337

> <CAS>
680-31-9

$$$$

  CDK

  9  8  0  0  0  0  0  0  0  0999 V2000
    1.2127    3.0316    0.0000 O   0  0  0  0  0  0  0  0  0  0  0  0
    1.2127    1.6324    0.0000 P   0  0  0  0  0  0  0  0  0  0  0  0
    0.0000    0.9328    0.0000 C   0  0  0  0  0  0  0  0  0  0  0  0
    2.5652    1.2593    0.0000 O   0  0  0  0  0  0  0  0  0  0  0  0
    2.1921    0.6530    0.0000 O   0  0  0  0  0  0  0  0  0  0  0  0
    3.5447    2.2388    0.0000 C   0  0  0  0  0  0  0  0  0  0  0  0
    3.5447    1.0261    0.0000 C   0  0  0  0  0  0  0  0  0  0  0  0
    4.8973    1.9123    0.0000 C   0  0  0  0  0  0  0  0  0  0  0  0
    4.5242    0.0000    0.0000 C   0  0  0  0  0  0  0  0  0  0  0  0
  1  2  2  0  0  0  0 
  2  3  1  0  0  0  0 
  2  4  1  0  0  0  0 
  2  5  1  0  0  0  0 
  4  6  1  0  0  0  0 
  5  7  1  0  0  0  0 
  6  8  1  0  0  0  0 
  7  9  1  0  0  0  0 
M  END
> <Name>
DIETHYL METHYLPHOSPHONATE

> <Source>
IndexNet2DMolFile

> <Tox>
-1.876

> <CAS>
683-08-9

$$$$

  CDK

 10  9  0  0  0  0  0  0  0  0999 V2000
    1.2983    0.0511    0.0014 C   0  0  0  0  0  0  0  0  0  0  0  0
    0.0000   -0.8383    0.0019 C   0  0  0  0  0  0  0  0  0  0  0  0
    1.1579    1.1296    0.7988 F   0  0  0  0  0  0  0  0  0  0  0  0
    1.5746    0.5392   -1.2234 F   0  0  0  0  0  0  0  0  0  0  0  0
    2.4102   -0.5804    0.4155 F   0  0  0  0  0  0  0  0  0  0  0  0
    0.0001   -2.0323    0.0013 O   0  0  0  0  0  0  0  0  0  0  0  0
   -1.2983    0.0510   -0.0006 C   0  0  0  0  0  0  0  0  0  0  0  0
   -1.1588    1.1240   -0.8057 F   0  0  0  0  0  0  0  0  0  0  0  0
   -1.5733    0.5476    1.2211 F   0  0  0  0  0  0  0  0  0  0  0  0
   -2.4106   -0.5832   -0.4091 F   0  0  0  0  0  0  0  0  0  0  0  0
  1  2  1  0  0  0  0 
  1  3  1  0  0  0  0 
  1  4  1  0  0  0  0 
  1  5  1  0  0  0  0 
  2  6  2  0  0  0  0 
  2  7  1  0  0  0  0 
  7  8  1  0  0  0  0 
  7  9  1  0  0  0  0 
  7 10  1  0  0  0  0 
M  END
> <Name>
HEXAFLUORO-2-PROPANONE

> <Source>
DougDB3DMolFile

> <Tox>
3.348

> <CAS>
684-16-2

$$$$

  CDK

  4  3  0  0  0  0  0  0  0  0999 V2000
    0.0000   -0.0000    0.0000 C   0  0  0  0  0  0  0  0  0  0  0  0
    1.1483   -0.6690    0.0000 C   0  0  0  0  0  0  0  0  0  0  0  0
    2.3001   -0.0000    0.0000 C   0  0  0  0  0  0  0  0  0  0  0  0
    3.4485   -0.6690    0.0000 C   0  0  0  0  0  0  0  0  0  0  0  0
  1  2  2  0  0  0  0 
  2  3  1  0  0  0  0 
  3  4  3  0  0  0  0 
M  END
> <Name>
1-BUTEN-3-YNE

> <Source>
DSSTox2DMolFile

> <Tox>
3.130

> <CAS>
689-97-4

$$$$

  CDK

  7  6  0  0  0  0  0  0  0  0999 V2000
    3.1610    1.5165    2.0626 C   0  0  0  0  0  0  0  0  0  0  0  0
    1.7800    2.0079    2.4070 C   0  0  0  0  0  0  0  0  0  0  0  0
    4.0700    2.2468    1.4146 C   0  0  0  0  0  0  0  0  0  0  0  0
    1.8728    3.2396    3.3078 C   0  0  0  0  0  0  0  0  0  0  0  0
    1.0218    0.9061    3.1501 C   0  0  0  0  0  0  0  0  0  0  0  0
    1.0176    2.3594    1.1294 C   0  0  0  0  0  0  0  0  0  0  0  0
    5.4220    1.7431    1.0861 C   0  0  0  0  0  0  0  0  0  0  0  0
  1  2  1  0  0  0  0 
  1  3  2  0  0  0  0 
  2  4  1  0  0  0  0 
  2  5  1  0  0  0  0 
  2  6  1  0  0  0  0 
  3  7  1  0  0  0  0 
M  END
> <Name>
4,4-DIMETHYL-2-PENTENE (TRANS)

> <Source>
NIST3DMolFile

> <Tox>
2.045

> <CAS>
690-08-4

$$$$

  CDK

  6  5  0  0  0  0  0  0  0  0999 V2000
    3.1064    1.5377    1.1992 C   0  0  0  0  0  0  0  0  0  0  0  0
    4.3552    1.8843    2.0128 C   0  0  0  0  0  0  0  0  0  0  0  0
    1.8683    2.1053    1.7995 C   0  0  0  0  0  0  0  0  0  0  0  0
    4.6562    3.3718    1.9374 C   0  0  0  0  0  0  0  0  0  0  0  0
    5.5439    1.0796    1.5122 C   0  0  0  0  0  0  0  0  0  0  0  0
    0.9098    2.6763    1.0792 C   0  0  0  0  0  0  0  0  0  0  0  0
  1  2  1  0  0  0  0 
  1  3  1  0  0  0  0 
  2  4  1  0  0  0  0 
  2  5  1  0  0  0  0 
  3  6  2  0  0  0  0 
M  END
> <Name>
4-METHYL-1-PENTENE

> <Source>
NIST3DMolFile

> <Tox>
2.435

> <CAS>
691-37-2

$$$$

  CDK

  6  5  0  0  0  0  0  0  0  0999 V2000
    3.1339    1.9727    1.1212 C   0  0  0  0  0  0  0  0  0  0  0  0
    3.4214    2.7696    2.3541 C   0  0  0  0  0  0  0  0  0  0  0  0
    2.0467    1.2213    0.9400 C   0  0  0  0  0  0  0  0  0  0  0  0
    4.7167    2.2872    2.9881 C   0  0  0  0  0  0  0  0  0  0  0  0
    3.5092    4.2464    2.0029 C   0  0  0  0  0  0  0  0  0  0  0  0
    0.9563    1.0559    1.9258 C   0  0  0  0  0  0  0  0  0  0  0  0
  1  2  1  0  0  0  0 
  1  3  2  0  0  0  0 
  2  4  1  0  0  0  0 
  2  5  1  0  0  0  0 
  3  6  1  0  0  0  0 
M  END
> <Name>
4-METHYL-2-PENTENE (CIS)

> <Source>
NIST3DMolFile

> <Tox>
2.387

> <CAS>
691-38-3

$$$$

  CDK

  6  5  0  0  0  0  0  0  0  0999 V2000
    4.6537    1.9437    1.0614 C   0  0  0  0  0  0  0  0  0  0  0  0
    3.4282    1.0434    0.9577 C   0  0  0  0  0  0  0  0  0  0  0  0
    5.8739    1.1856    0.9628 C   0  0  0  0  0  0  0  0  0  0  0  0
    2.1460    1.8535    1.0653 C   0  0  0  0  0  0  0  0  0  0  0  0
    6.8838    0.5591    0.8798 C   0  0  0  0  0  0  0  0  0  0  0  0
    0.9242    0.9692    0.9610 C   0  0  0  0  0  0  0  0  0  0  0  0
  1  2  1  0  0  0  0 
  1  3  1  0  0  0  0 
  2  4  1  0  0  0  0 
  3  5  3  0  0  0  0 
  4  6  1  0  0  0  0 
M  END
> <Name>
1-HEXYNE

> <Source>
NIST3DMolFile

> <Tox>
2.124

> <CAS>
693-02-7

$$$$

  CDK

  6  5  0  0  0  0  0  0  0  0999 V2000
    1.1480   -0.0000    0.0000 C   0  0  0  0  0  0  0  0  0  0  0  0
    2.2960   -0.6716    0.0000 C   0  0  0  0  0  0  0  0  0  0  0  0
    0.0000   -0.6716    0.0000 Cl  0  0  0  0  0  0  0  0  0  0  0  0
    3.4440   -0.0000    0.0000 S   0  0  0  0  0  0  0  0  0  0  0  0
    4.5920   -0.6716    0.0000 C   0  0  0  0  0  0  0  0  0  0  0  0
    5.7400   -0.0000    0.0000 C   0  0  0  0  0  0  0  0  0  0  0  0
  1  2  1  0  0  0  0 
  1  3  1  0  0  0  0 
  2  4  1  0  0  0  0 
  4  5  1  0  0  0  0 
  5  6  1  0  0  0  0 
M  END
> <Name>
2-CHLOROETHYL ETHYL SULFIDE

> <Source>
DSSTox2DMolFile

> <Tox>
0.531

> <CAS>
693-07-2

$$$$

  CDK

 13 12  0  0  0  0  0  0  0  0999 V2000
   10.3634   -1.3242    0.0000 N   0  0  0  0  0  0  0  0  0  0  0  0
   11.5149   -1.9921    0.0000 O   0  0  0  0  0  0  0  0  0  0  0  0
    9.2119   -1.9921    0.0000 O   0  0  0  0  0  0  0  0  0  0  0  0
   10.3634   -0.0000    0.0000 O   0  0  0  0  0  0  0  0  0  0  0  0
    8.0604   -1.3242    0.0000 C   0  0  0  0  0  0  0  0  0  0  0  0
    6.9090   -1.9921    0.0000 C   0  0  0  0  0  0  0  0  0  0  0  0
    5.7575   -1.3242    0.0000 O   0  0  0  0  0  0  0  0  0  0  0  0
    4.6060   -1.9921    0.0000 C   0  0  0  0  0  0  0  0  0  0  0  0
    3.4545   -1.3242    0.0000 C   0  0  0  0  0  0  0  0  0  0  0  0
    2.3030   -1.9921    0.0000 O   0  0  0  0  0  0  0  0  0  0  0  0
    1.1515   -1.3242    0.0000 N   0  0  0  0  0  0  0  0  0  0  0  0
    1.1515   -0.0000    0.0000 O   0  0  0  0  0  0  0  0  0  0  0  0
    0.0000   -1.9921    0.0000 O   0  0  0  0  0  0  0  0  0  0  0  0
  1  2  2  0  0  0  0 
  1  3  1  0  0  0  0 
  1  4  1  0  0  0  0 
  3  5  1  0  0  0  0 
  5  6  1  0  0  0  0 
  7  6  1  0  0  0  0 
  7  8  1  0  0  0  0 
  8  9  1  0  0  0  0 
  9 10  1  0  0  0  0 
 10 11  1  0  0  0  0 
 12 11  1  0  0  0  0 
 11 13  2  0  0  0  0 
M  CHG  1   1   1
M  CHG  1   4  -1
M  CHG  1  11   1
M  CHG  1  12  -1
M  END
> <Name>
DIETHYLENE DIGLYCOL, DINITRATE

> <Source>
DSSTox2DMolFile

> <Tox>
-2.229

> <CAS>
693-21-0

$$$$

  CDK

 11 10  0  0  0  0  0  0  0  0999 V2000
    6.9113   -0.0000    0.0000 C   0  0  0  0  0  0  0  0  0  0  0  0
    8.0632   -0.6635    0.0000 C   0  0  0  0  0  0  0  0  0  0  0  0
    9.2151   -0.0000    0.0000 O   0  0  0  0  0  0  0  0  0  0  0  0
    8.0632   -1.9997    0.0000 C   0  0  0  0  0  0  0  0  0  0  0  0
    6.9113   -2.6632    0.0000 C   0  0  0  0  0  0  0  0  0  0  0  0
    5.7595   -1.9997    0.0000 C   0  0  0  0  0  0  0  0  0  0  0  0
    4.6076   -2.6632    0.0000 C   0  0  0  0  0  0  0  0  0  0  0  0
    3.4557   -1.9997    0.0000 C   0  0  0  0  0  0  0  0  0  0  0  0
    2.3038   -2.6632    0.0000 C   0  0  0  0  0  0  0  0  0  0  0  0
    1.1519   -1.9997    0.0000 C   0  0  0  0  0  0  0  0  0  0  0  0
    0.0000   -2.6632    0.0000 C   0  0  0  0  0  0  0  0  0  0  0  0
  1  2  1  0  0  0  0 
  2  3  2  0  0  0  0 
  2  4  1  0  0  0  0 
  4  5  1  0  0  0  0 
  5  6  1  0  0  0  0 
  6  7  1  0  0  0  0 
  7  8  1  0  0  0  0 
  8  9  1  0  0  0  0 
  9 10  1  0  0  0  0 
 10 11  1  0  0  0  0 
M  END
> <Name>
2-DECANONE

> <Source>
DSSTox2DMolFile

> <Tox>
-0.570

> <CAS>
693-54-9

$$$$

  CDK

 10  9  0  0  0  0  0  0  0  0999 V2000
    3.4478    0.4997    0.0000 C   0  0  0  0  0  0  0  0  0  0  0  0
    4.3473    0.0000    0.0000 C   0  0  0  0  0  0  0  0  0  0  0  0
    2.5984    0.0000    0.0000 C   0  0  0  0  0  0  0  0  0  0  0  0
    5.1968    0.4997    0.0000 C   0  0  0  0  0  0  0  0  0  0  0  0
    1.7489    0.4997    0.0000 C   0  0  0  0  0  0  0  0  0  0  0  0
    6.0462    0.0000    0.0000 C   0  0  0  0  0  0  0  0  0  0  0  0
    0.8495    0.0000    0.0000 C   0  0  0  0  0  0  0  0  0  0  0  0
    6.9457    0.4997    0.0000 C   0  0  0  0  0  0  0  0  0  0  0  0
    0.0000    0.4997    0.0000 C   0  0  0  0  0  0  0  0  0  0  0  0
    7.7951    0.0000    0.0000 Br  0  0  0  0  0  0  0  0  0  0  0  0
  1  2  1  0  0  0  0 
  1  3  1  0  0  0  0 
  2  4  1  0  0  0  0 
  3  5  1  0  0  0  0 
  4  6  1  0  0  0  0 
  5  7  1  0  0  0  0 
  6  8  1  0  0  0  0 
  7  9  1  0  0  0  0 
  8 10  1  0  0  0  0 
M  END
> <Name>
1-BROMO-N-NONANE

> <Source>
NIST2DMolFile

> <Tox>
-0.921

> <CAS>
693-58-3

$$$$

  CDK

 11 10  0  0  0  0  0  0  0  0999 V2000
    0.0000   -0.6673    0.0000 C   0  0  0  0  0  0  0  0  0  0  0  0
    1.1505   -0.0000    0.0000 C   0  0  0  0  0  0  0  0  0  0  0  0
    2.3010   -0.6673    0.0000 C   0  0  0  0  0  0  0  0  0  0  0  0
    3.4515   -0.0000    0.0000 C   0  0  0  0  0  0  0  0  0  0  0  0
    4.6020   -0.6673    0.0000 C   0  0  0  0  0  0  0  0  0  0  0  0
    5.7525   -0.0000    0.0000 O   0  0  0  0  0  0  0  0  0  0  0  0
    6.9029   -0.6673    0.0000 C   0  0  0  0  0  0  0  0  0  0  0  0
    8.0534   -0.0000    0.0000 C   0  0  0  0  0  0  0  0  0  0  0  0
    9.2039   -0.6673    0.0000 C   0  0  0  0  0  0  0  0  0  0  0  0
   10.3544   -0.0000    0.0000 C   0  0  0  0  0  0  0  0  0  0  0  0
   11.5049   -0.6673    0.0000 C   0  0  0  0  0  0  0  0  0  0  0  0
  1  2  1  0  0  0  0 
  2  3  1  0  0  0  0 
  3  4  1  0  0  0  0 
  4  5  1  0  0  0  0 
  5  6  1  0  0  0  0 
  6  7  1  0  0  0  0 
  7  8  1  0  0  0  0 
  8  9  1  0  0  0  0 
  9 10  1  0  0  0  0 
 10 11  1  0  0  0  0 
M  END
> <Name>
DI-N-PENTYLETHER

> <Source>
DSSTox2DMolFile

> <Tox>
-0.067

> <CAS>
693-65-2

$$$$

  CDK

  6  6  0  0  0  0  0  0  0  0999 V2000
    0.0000   -2.1113    0.0000 N   0  0  0  0  0  0  0  0  0  0  0  0
    0.4148   -3.3726    0.0000 C   0  0  0  0  0  0  0  0  0  0  0  0
    1.0860   -1.3254    0.0000 C   0  0  0  0  0  0  0  0  0  0  0  0
    1.7437   -3.3726    0.0000 S   0  0  0  0  0  0  0  0  0  0  0  0
    2.1585   -2.1113    0.0000 C   0  0  0  0  0  0  0  0  0  0  0  0
    1.0860   -0.0000    0.0000 C   0  0  0  0  0  0  0  0  0  0  0  0
  1  2  2  0  0  0  0 
  1  3  1  0  0  0  0 
  4  2  1  0  0  0  0 
  3  5  2  0  0  0  0 
  3  6  1  0  0  0  0 
  4  5  1  0  0  0  0 
M  END
> <Name>
4-METHYLTHIAZOLE

> <Source>
DSSTox2DMolFile

> <Tox>
0.934

> <CAS>
693-95-8

$$$$

  CDK

  9  9  0  0  0  0  0  0  0  0999 V2000
    6.1802    1.9422    3.2874 C   0  0  0  0  0  0  0  0  0  0  0  0
    5.4007    1.7218    1.9994 C   0  0  0  0  0  0  0  0  0  0  0  0
    5.9499    2.6284    0.9079 C   0  0  0  0  0  0  0  0  0  0  0  0
    3.8987    1.9740    2.2177 C   0  0  0  0  0  0  0  0  0  0  0  0
    3.1029    1.7499    0.9303 C   0  0  0  0  0  0  0  0  0  0  0  0
    3.3339    1.0622    3.3089 C   0  0  0  0  0  0  0  0  0  0  0  0
    1.6309    2.0583    1.1504 C   0  0  0  0  0  0  0  0  0  0  0  0
    1.8639    1.3629    3.5510 C   0  0  0  0  0  0  0  0  0  0  0  0
    1.0576    1.2036    2.2709 C   0  0  0  0  0  0  0  0  0  0  0  0
  1  2  1  0  0  0  0 
  2  3  1  0  0  0  0 
  2  4  1  0  0  0  0 
  5  4  1  0  0  0  0 
  4  6  1  0  0  0  0 
  7  5  1  0  0  0  0 
  6  8  1  0  0  0  0 
  9  7  1  0  0  0  0 
  8  9  1  0  0  0  0 
M  END
> <Name>
ISOPROPYLCYCLOHEXANE

> <Source>
NIST3DMolFile

> <Tox>
0.681

> <CAS>
696-29-7

$$$$

  CDK

 10 10  0  0  0  0  0  0  0  0999 V2000
    0.0000    1.7493    0.0000 C   0  0  0  0  0  0  0  0  0  0  0  0
    0.9996    1.7493    0.0000 C   0  0  0  0  0  0  0  0  0  0  0  0
    1.4994    2.5990    0.0000 C   0  0  0  0  0  0  0  0  0  0  0  0
    1.4994    0.8997    0.0000 C   0  0  0  0  0  0  0  0  0  0  0  0
    0.9996    3.4987    0.0000 C   0  0  0  0  0  0  0  0  0  0  0  0
    2.4991    2.5990    0.0000 C   0  0  0  0  0  0  0  0  0  0  0  0
    0.9996    0.0000    0.0000 O   0  0  0  0  0  0  0  0  0  0  0  0
    2.4991    0.8997    0.0000 C   0  0  0  0  0  0  0  0  0  0  0  0
    2.9989    1.7493    0.0000 C   0  0  0  0  0  0  0  0  0  0  0  0
    3.9985    1.7493    0.0000 C   0  0  0  0  0  0  0  0  0  0  0  0
  1  2  1  0  0  0  0 
  3  2  2  0  0  0  0 
  2  4  1  0  0  0  0 
  3  5  1  0  0  0  0 
  6  3  1  0  0  0  0 
  4  7  1  0  0  0  0 
  4  8  2  0  0  0  0 
  9  6  2  0  0  0  0 
  8  9  1  0  0  0  0 
  9 10  1  0  0  0  0 
M  END
> <Name>
2,3,5-TRIMETHYLPHENOL

> <Source>
NIST2DMolFile

> <Tox>
-2.420

> <CAS>
697-82-5

$$$$

  CDK

 13 13  0  0  0  0  0  0  0  0999 V2000
    2.3011   -2.6605    0.0000 C   0  0  0  0  0  0  0  0  0  0  0  0
    1.1540   -1.9902    0.0000 C   0  0  0  0  0  0  0  0  0  0  0  0
    3.4552   -1.9902    0.0000 C   0  0  0  0  0  0  0  0  0  0  0  0
    0.0000   -2.6605    0.0000 Cl  0  0  0  0  0  0  0  0  0  0  0  0
    1.1540   -0.6634    0.0000 C   0  0  0  0  0  0  0  0  0  0  0  0
    3.4552   -0.6634    0.0000 C   0  0  0  0  0  0  0  0  0  0  0  0
    4.6092   -2.6605    0.0000 N   0  0  0  0  0  0  0  0  0  0  0  0
    0.0000   -0.0000    0.0000 Cl  0  0  0  0  0  0  0  0  0  0  0  0
    2.3011   -0.0000    0.0000 C   0  0  0  0  0  0  0  0  0  0  0  0
    5.7563   -1.9902    0.0000 C   0  0  0  0  0  0  0  0  0  0  0  0
    5.7563   -0.6634    0.0000 O   0  0  0  0  0  0  0  0  0  0  0  0
    6.9103   -2.6605    0.0000 C   0  0  0  0  0  0  0  0  0  0  0  0
    6.9103   -3.9873    0.0000 C   0  0  0  0  0  0  0  0  0  0  0  0
  1  2  2  0  0  0  0 
  1  3  1  0  0  0  0 
  2  4  1  0  0  0  0 
  2  5  1  0  0  0  0 
  6  3  2  0  0  0  0 
  3  7  1  0  0  0  0 
  5  8  1  0  0  0  0 
  5  9  2  0  0  0  0 
  9  6  1  0  0  0  0 
  7 10  1  0  0  0  0 
 10 11  2  0  0  0  0 
 10 12  1  0  0  0  0 
 12 13  1  0  0  0  0 
M  END
> <Name>
PROPANIL

> <Source>
DSSTox2DMolFile

> <Tox>
-6.042

> <CAS>
709-98-8

$$$$

  CDK

 18 19  0  0  0  0  0  0  0  0999 V2000
    6.3431    1.2127    0.0000 N   0  0  0  0  0  0  0  0  0  0  0  0
    7.7424    1.2127    0.0000 N   0  0  0  0  0  0  0  0  0  0  0  0
    4.9439    1.2127    0.0000 C   0  0  0  0  0  0  0  0  0  0  0  0
    9.1416    1.2127    0.0000 C   0  0  0  0  0  0  0  0  0  0  0  0
    4.2443    2.4720    0.0000 C   0  0  0  0  0  0  0  0  0  0  0  0
    4.2443    0.0000    0.0000 C   0  0  0  0  0  0  0  0  0  0  0  0
    9.8412    0.0000    0.0000 C   0  0  0  0  0  0  0  0  0  0  0  0
    9.8412    2.4253    0.0000 C   0  0  0  0  0  0  0  0  0  0  0  0
    2.7984    2.4720    0.0000 C   0  0  0  0  0  0  0  0  0  0  0  0
    2.7984    0.0000    0.0000 C   0  0  0  0  0  0  0  0  0  0  0  0
   11.2404    0.0000    0.0000 C   0  0  0  0  0  0  0  0  0  0  0  0
   11.2404    2.4253    0.0000 C   0  0  0  0  0  0  0  0  0  0  0  0
    2.0988    1.2127    0.0000 C   0  0  0  0  0  0  0  0  0  0  0  0
   11.9400    1.2127    0.0000 C   0  0  0  0  0  0  0  0  0  0  0  0
    0.6996    1.2127    0.0000 N   0  0  0  0  0  0  0  0  0  0  0  0
   13.3393    1.2127    0.0000 N   0  0  0  0  0  0  0  0  0  0  0  0
    0.0000    2.4253    0.0000 O   0  0  0  0  0  0  0  0  0  0  0  0
    0.0000    0.0466    0.0000 O   0  0  0  0  0  0  0  0  0  0  0  0
  1  2  2  0  0  0  0 
  1  3  1  0  0  0  0 
  2  4  1  0  0  0  0 
  3  5  2  0  0  0  0 
  3  6  1  0  0  0  0 
  4  7  2  0  0  0  0 
  4  8  1  0  0  0  0 
  5  9  1  0  0  0  0 
 10  6  2  0  0  0  0 
  7 11  1  0  0  0  0 
 12  8  2  0  0  0  0 
  9 13  2  0  0  0  0 
 13 10  1  0  0  0  0 
 11 14  2  0  0  0  0 
 14 12  1  0  0  0  0 
 13 15  1  0  0  0  0 
 14 16  1  0  0  0  0 
 15 17  1  0  0  0  0 
 15 18  2  0  0  0  0 
M  CHG  1  15   1
M  CHG  1  17  -1
M  END
> <Name>
4-((4-NITROPHENYL)AZO)BENZENAMINE

> <Source>
IndexNet2DMolFile

> <Tox>
-9.523

> <CAS>
730-40-5

$$$$

  CDK

 19 20  0  0  0  0  0  0  0  0999 V2000
    5.3390   -2.4857    0.0000 N   0  0  0  0  0  0  0  0  0  0  0  0
    6.1127   -3.5593    0.0000 C   0  0  0  0  0  0  0  0  0  0  0  0
    6.1127   -1.4218    0.0000 C   0  0  0  0  0  0  0  0  0  0  0  0
    4.0042   -2.4664    0.0000 C   0  0  0  0  0  0  0  0  0  0  0  0
    7.3701   -3.1531    0.0000 C   0  0  0  0  0  0  0  0  0  0  0  0
    5.6872   -4.8360    0.0000 O   0  0  0  0  0  0  0  0  0  0  0  0
    7.3701   -1.8183    0.0000 C   0  0  0  0  0  0  0  0  0  0  0  0
    5.6872   -0.1354    0.0000 O   0  0  0  0  0  0  0  0  0  0  0  0
    3.3465   -1.3251    0.0000 S   0  0  0  0  0  0  0  0  0  0  0  0
    8.5211   -3.8205    0.0000 C   0  0  0  0  0  0  0  0  0  0  0  0
    8.5211   -1.1510    0.0000 C   0  0  0  0  0  0  0  0  0  0  0  0
    2.0021   -1.3251    0.0000 P   0  0  0  0  0  0  0  0  0  0  0  0
    9.6720   -3.1531    0.0000 C   0  0  0  0  0  0  0  0  0  0  0  0
    9.6720   -1.8377    0.0000 C   0  0  0  0  0  0  0  0  0  0  0  0
    2.0021   -0.0000    0.0000 S   0  0  0  0  0  0  0  0  0  0  0  0
    0.6674   -1.3251    0.0000 O   0  0  0  0  0  0  0  0  0  0  0  0
    2.0021   -2.6598    0.0000 O   0  0  0  0  0  0  0  0  0  0  0  0
    0.0000   -0.1741    0.0000 C   0  0  0  0  0  0  0  0  0  0  0  0
    0.8608   -3.3175    0.0000 C   0  0  0  0  0  0  0  0  0  0  0  0
  1  2  1  0  0  0  0 
  1  3  1  0  0  0  0 
  1  4  1  0  0  0  0 
  2  5  1  0  0  0  0 
  2  6  2  0  0  0  0 
  3  7  1  0  0  0  0 
  3  8  2  0  0  0  0 
  4  9  1  0  0  0  0 
  5 10  1  0  0  0  0 
  5  7  2  0  0  0  0 
  7 11  1  0  0  0  0 
 12  9  1  0  0  0  0 
 10 13  2  0  0  0  0 
 11 14  2  0  0  0  0 
 12 15  2  0  0  0  0 
 12 16  1  0  0  0  0 
 12 17  1  0  0  0  0 
 14 13  1  0  0  0  0 
 16 18  1  0  0  0  0 
 17 19  1  0  0  0  0 
M  END
> <Name>
PHOSMET

> <Source>
DSSTox2DMolFile

> <Tox>
-6.310

> <CAS>
732-11-6

$$$$

  CDK

 19 19  0  0  0  0  0  0  0  0999 V2000
    2.6612   -5.7579    0.0000 O   0  0  0  0  0  0  0  0  0  0  0  0
    3.3248   -4.6105    0.0000 C   0  0  0  0  0  0  0  0  0  0  0  0
    2.6612   -3.4561    0.0000 C   0  0  0  0  0  0  0  0  0  0  0  0
    4.6589   -4.6105    0.0000 C   0  0  0  0  0  0  0  0  0  0  0  0
    3.3248   -2.3018    0.0000 C   0  0  0  0  0  0  0  0  0  0  0  0
    1.3272   -3.4561    0.0000 C   0  0  0  0  0  0  0  0  0  0  0  0
    5.3225   -3.4561    0.0000 C   0  0  0  0  0  0  0  0  0  0  0  0
    5.3225   -5.7579    0.0000 C   0  0  0  0  0  0  0  0  0  0  0  0
    4.6589   -2.3018    0.0000 C   0  0  0  0  0  0  0  0  0  0  0  0
    1.3272   -4.7833    0.0000 C   0  0  0  0  0  0  0  0  0  0  0  0
    0.0000   -3.4561    0.0000 C   0  0  0  0  0  0  0  0  0  0  0  0
    1.3272   -2.1290    0.0000 C   0  0  0  0  0  0  0  0  0  0  0  0
    5.9860   -6.9123    0.0000 C   0  0  0  0  0  0  0  0  0  0  0  0
    4.1681   -6.4284    0.0000 C   0  0  0  0  0  0  0  0  0  0  0  0
    6.4699   -5.0943    0.0000 C   0  0  0  0  0  0  0  0  0  0  0  0
    5.3225   -1.1544    0.0000 C   0  0  0  0  0  0  0  0  0  0  0  0
    6.4699   -1.8179    0.0000 C   0  0  0  0  0  0  0  0  0  0  0  0
    4.1681   -0.4839    0.0000 C   0  0  0  0  0  0  0  0  0  0  0  0
    5.9860   -0.0000    0.0000 C   0  0  0  0  0  0  0  0  0  0  0  0
  1  2  1  0  0  0  0 
  2  3  2  0  0  0  0 
  2  4  1  0  0  0  0 
  3  5  1  0  0  0  0 
  3  6  1  0  0  0  0 
  7  4  2  0  0  0  0 
  4  8  1  0  0  0  0 
  5  9  2  0  0  0  0 
  6 10  1  0  0  0  0 
  6 11  1  0  0  0  0 
  6 12  1  0  0  0  0 
  9  7  1  0  0  0  0 
  8 13  1  0  0  0  0 
  8 14  1  0  0  0  0 
  8 15  1  0  0  0  0 
  9 16  1  0  0  0  0 
 16 17  1  0  0  0  0 
 16 18  1  0  0  0  0 
 16 19  1  0  0  0  0 
M  END
> <Name>
2,4,6-TRI(TERT-BUTYL)PHENOL

> <Source>
DSSTox2DMolFile

> <Tox>
-3.180

> <CAS>
732-26-3

$$$$

  CDK

 23 23  0  0  0  0  0  0  0  0999 V2000
    9.3037   -3.6356    0.0000 P   0  0  0  0  0  0  0  0  0  0  0  0
    9.3037   -4.9611    0.0000 O   0  0  0  0  0  0  0  0  0  0  0  0
   10.6418   -3.6356    0.0000 O   0  0  0  0  0  0  0  0  0  0  0  0
    9.3037   -2.3101    0.0000 S   0  0  0  0  0  0  0  0  0  0  0  0
    7.9782   -3.6356    0.0000 S   0  0  0  0  0  0  0  0  0  0  0  0
   10.4650   -5.6428    0.0000 C   0  0  0  0  0  0  0  0  0  0  0  0
   11.2982   -2.4869    0.0000 C   0  0  0  0  0  0  0  0  0  0  0  0
    7.3091   -2.4869    0.0000 C   0  0  0  0  0  0  0  0  0  0  0  0
   11.6138   -4.9611    0.0000 C   0  0  0  0  0  0  0  0  0  0  0  0
   10.4650   -6.9683    0.0000 C   0  0  0  0  0  0  0  0  0  0  0  0
   10.6418   -1.3255    0.0000 C   0  0  0  0  0  0  0  0  0  0  0  0
   12.6237   -2.4869    0.0000 C   0  0  0  0  0  0  0  0  0  0  0  0
    5.9710   -2.4869    0.0000 C   0  0  0  0  0  0  0  0  0  0  0  0
    5.3146   -1.3255    0.0000 N   0  0  0  0  0  0  0  0  0  0  0  0
    3.9891   -1.3255    0.0000 S   0  0  0  0  0  0  0  0  0  0  0  0
    3.9891   -0.0000    0.0000 O   0  0  0  0  0  0  0  0  0  0  0  0
    3.9891   -2.6636    0.0000 O   0  0  0  0  0  0  0  0  0  0  0  0
    2.6636   -1.3255    0.0000 C   0  0  0  0  0  0  0  0  0  0  0  0
    1.9819   -2.4869    0.0000 C   0  0  0  0  0  0  0  0  0  0  0  0
    1.9819   -0.1894    0.0000 C   0  0  0  0  0  0  0  0  0  0  0  0
    0.6564   -2.4869    0.0000 C   0  0  0  0  0  0  0  0  0  0  0  0
    0.6564   -0.1894    0.0000 C   0  0  0  0  0  0  0  0  0  0  0  0
    0.0000   -1.3255    0.0000 C   0  0  0  0  0  0  0  0  0  0  0  0
  1  2  1  0  0  0  0 
  1  3  1  0  0  0  0 
  1  4  2  0  0  0  0 
  1  5  1  0  0  0  0 
  2  6  1  0  0  0  0 
  3  7  1  0  0  0  0 
  5  8  1  0  0  0  0 
  6  9  1  0  0  0  0 
  6 10  1  0  0  0  0 
  7 11  1  0  0  0  0 
  7 12  1  0  0  0  0 
  8 13  1  0  0  0  0 
 13 14  1  0  0  0  0 
 14 15  1  0  0  0  0 
 15 16  2  0  0  0  0 
 15 17  2  0  0  0  0 
 15 18  1  0  0  0  0 
 18 19  2  0  0  0  0 
 18 20  1  0  0  0  0 
 19 21  1  0  0  0  0 
 20 22  2  0  0  0  0 
 21 23  2  0  0  0  0 
 22 23  1  0  0  0  0 
M  END
> <Name>
BENSULIDE

> <Source>
DSSTox2DMolFile

> <Tox>
-6.097

> <CAS>
741-58-2

$$$$

  CDK

  7  6  0  0  0  0  0  0  0  0999 V2000
    1.6373   -0.0000    0.0000 C   0  0  0  0  0  0  0  0  0  0  0  0
    2.3034   -1.1517    0.0000 P   0  0  0  0  0  0  0  0  0  0  0  0
    3.4550   -0.4856    0.0000 O   0  0  0  0  0  0  0  0  0  0  0  0
    2.9694   -2.3034    0.0000 O   0  0  0  0  0  0  0  0  0  0  0  0
    1.1517   -1.8178    0.0000 O   0  0  0  0  0  0  0  0  0  0  0  0
    4.2973   -2.3034    0.0000 C   0  0  0  0  0  0  0  0  0  0  0  0
    0.0000   -1.1517    0.0000 C   0  0  0  0  0  0  0  0  0  0  0  0
  1  2  1  0  0  0  0 
  2  3  2  0  0  0  0 
  2  4  1  0  0  0  0 
  2  5  1  0  0  0  0 
  4  6  1  0  0  0  0 
  5  7  1  0  0  0  0 
M  END
> <Name>
Phosphonic acid, methyl-, dimethyl ester

> <Source>
DSSTox2DMolFile

> <Tox>
-0.017

> <CAS>
756-79-6

$$$$

  CDK

 12 11  0  0  0  0  0  0  0  0999 V2000
    3.4563   -2.0058    0.0000 C   0  0  0  0  0  0  0  0  0  0  0  0
    2.3320   -2.6721    0.0000 N   0  0  0  0  0  0  0  0  0  0  0  0
    3.4563   -0.6663    0.0000 O   0  0  0  0  0  0  0  0  0  0  0  0
    4.6293   -2.6721    0.0000 S   0  0  0  0  0  0  0  0  0  0  0  0
    2.3320   -3.9769    0.0000 C   0  0  0  0  0  0  0  0  0  0  0  0
    1.1591   -1.9919    0.0000 C   0  0  0  0  0  0  0  0  0  0  0  0
    5.7814   -2.0058    0.0000 C   0  0  0  0  0  0  0  0  0  0  0  0
    1.1868   -4.6293    0.0000 C   0  0  0  0  0  0  0  0  0  0  0  0
    1.1591   -0.6663    0.0000 C   0  0  0  0  0  0  0  0  0  0  0  0
    6.9404   -2.6721    0.0000 C   0  0  0  0  0  0  0  0  0  0  0  0
    1.1868   -5.9549    0.0000 C   0  0  0  0  0  0  0  0  0  0  0  0
    0.0000   -0.0000    0.0000 C   0  0  0  0  0  0  0  0  0  0  0  0
  1  2  1  0  0  0  0 
  1  3  2  0  0  0  0 
  1  4  1  0  0  0  0 
  2  5  1  0  0  0  0 
  2  6  1  0  0  0  0 
  4  7  1  0  0  0  0 
  5  8  1  0  0  0  0 
  6  9  1  0  0  0  0 
  7 10  1  0  0  0  0 
  8 11  1  0  0  0  0 
  9 12  1  0  0  0  0 
M  END
> <Name>
EPTAM (EPTC)

> <Source>
DSSTox2DMolFile

> <Tox>
-1.620

> <CAS>
759-94-4

$$$$

  CDK

  6  5  0  0  0  0  0  0  0  0999 V2000
    1.2576    2.1497    1.5216 C   0  0  0  0  0  0  0  0  0  0  0  0
    2.3321    1.4866    2.3249 C   0  0  0  0  0  0  0  0  0  0  0  0
    0.7842    3.4288    2.1800 C   0  0  0  0  0  0  0  0  0  0  0  0
    3.7279    1.9916    2.1342 C   0  0  0  0  0  0  0  0  0  0  0  0
    2.0586    0.4932    3.1703 C   0  0  0  0  0  0  0  0  0  0  0  0
    4.3817    1.3636    0.9211 C   0  0  0  0  0  0  0  0  0  0  0  0
  1  2  1  0  0  0  0 
  1  3  1  0  0  0  0 
  2  4  1  0  0  0  0 
  2  5  2  0  0  0  0 
  4  6  1  0  0  0  0 
M  END
> <Name>
2-ETHYL-1-BUTENE

> <Source>
NIST3DMolFile

> <Tox>
2.243

> <CAS>
760-21-4

$$$$

  CDK

  6  5  0  0  0  0  0  0  0  0999 V2000
    3.3247   -0.0000    0.0000 C   0  0  0  0  0  0  0  0  0  0  0  0
    1.9948   -0.0000    0.0000 C   0  0  0  0  0  0  0  0  0  0  0  0
    1.3299   -1.1537    0.0000 C   0  0  0  0  0  0  0  0  0  0  0  0
    0.0000   -1.1537    0.0000 Cl  0  0  0  0  0  0  0  0  0  0  0  0
    1.9948   -2.3040    0.0000 C   0  0  0  0  0  0  0  0  0  0  0  0
    3.3247   -2.3040    0.0000 Cl  0  0  0  0  0  0  0  0  0  0  0  0
  1  2  2  0  0  0  0 
  2  3  1  0  0  0  0 
  3  4  1  0  0  0  0 
  3  5  1  0  0  0  0 
  5  6  1  0  0  0  0 
M  END
> <Name>
3,4-DICHLORO-1-BUTENE

> <Source>
DSSTox2DMolFile

> <Tox>
1.340

> <CAS>
760-23-6

$$$$

  CDK

  8  7  0  0  0  0  0  0  0  0999 V2000
    3.4482    0.0000    0.0000 O   0  0  0  0  0  0  0  0  0  0  0  0
    2.5986    0.4997    0.0000 P   0  0  0  0  0  0  0  0  0  0  0  0
    4.3477    0.4997    0.0000 C   0  0  0  0  0  0  0  0  0  0  0  0
    1.7491    0.0000    0.0000 O   0  0  0  0  0  0  0  0  0  0  0  0
    2.5986    1.4992    0.0000 O   0  0  0  0  0  0  0  0  0  0  0  0
    5.1972    0.0000    0.0000 C   0  0  0  0  0  0  0  0  0  0  0  0
    0.8495    0.4997    0.0000 C   0  0  0  0  0  0  0  0  0  0  0  0
    0.0000    0.0000    0.0000 C   0  0  0  0  0  0  0  0  0  0  0  0
  1  2  1  0  0  0  0 
  1  3  1  0  0  0  0 
  2  4  1  0  0  0  0 
  2  5  2  0  0  0  0 
  3  6  1  0  0  0  0 
  4  7  1  0  0  0  0 
  7  8  1  0  0  0  0 
M  END
> <Name>
DIETHYL PHOSPHITE

> <Source>
NIST2DMolFile

> <Tox>
1.049

> <CAS>
762-04-9

$$$$

  CDK

  6  5  0  0  0  0  0  0  0  0999 V2000
    2.5914    2.1471    3.1259 C   0  0  0  0  0  0  0  0  0  0  0  0
    2.1145    1.3661    1.9409 C   0  0  0  0  0  0  0  0  0  0  0  0
    3.1500    1.2462    4.2210 C   0  0  0  0  0  0  0  0  0  0  0  0
    0.7346    0.8193    2.0247 C   0  0  0  0  0  0  0  0  0  0  0  0
    2.8850    1.1765    0.8697 C   0  0  0  0  0  0  0  0  0  0  0  0
    4.5174    0.7020    3.8742 C   0  0  0  0  0  0  0  0  0  0  0  0
  1  2  1  0  0  0  0 
  1  3  1  0  0  0  0 
  2  4  1  0  0  0  0 
  2  5  2  0  0  0  0 
  3  6  1  0  0  0  0 
M  END
> <Name>
2-METHYL-1-PENTENE

> <Source>
NIST3DMolFile

> <Tox>
2.290

> <CAS>
763-29-1

$$$$

  CDK

  6  5  0  0  0  0  0  0  0  0999 V2000
    1.7391    1.4906    0.0000 C   0  0  0  0  0  0  0  0  0  0  0  0
    0.8944    0.9938    0.0000 C   0  0  0  0  0  0  0  0  0  0  0  0
    2.5838    0.9938    0.0000 C   0  0  0  0  0  0  0  0  0  0  0  0
    0.8944    0.0000    0.0000 C   0  0  0  0  0  0  0  0  0  0  0  0
    0.0000    1.4906    0.0000 C   0  0  0  0  0  0  0  0  0  0  0  0
    3.4781    1.4906    0.0000 O   0  0  0  0  0  0  0  0  0  0  0  0
  1  2  1  0  0  0  0 
  1  3  1  0  0  0  0 
  2  4  1  0  0  0  0 
  2  5  2  0  0  0  0 
  3  6  1  0  0  0  0 
M  END
> <Name>
3-METHYL-3-BUTEN-1-OL

> <Source>
NIST2DMolFile

> <Tox>
0.550

> <CAS>
763-32-6

$$$$

  CDK

 11 10  0  0  0  0  0  0  0  0999 V2000
    0.0647   -0.1406   -0.1211 O   0  0  0  0  0  0  0  0  0  0  0  0
   -0.8383   -1.0200    0.5304 C   0  0  0  0  0  0  0  0  0  0  0  0
    1.2783   -0.7669   -0.5012 C   0  0  0  0  0  0  0  0  0  0  0  0
   -2.1466   -0.2511    0.7442 C   0  0  0  0  0  0  0  0  0  0  0  0
    2.1949    0.3205   -1.0772 C   0  0  0  0  0  0  0  0  0  0  0  0
   -2.9349   -0.4348   -0.4297 O   0  0  0  0  0  0  0  0  0  0  0  0
    2.8155    1.1221   -0.0872 O   0  0  0  0  0  0  0  0  0  0  0  0
   -4.1344    0.2089   -0.4860 C   0  0  0  0  0  0  0  0  0  0  0  0
    3.8901    0.6217    0.5888 C   0  0  0  0  0  0  0  0  0  0  0  0
   -4.7052    0.9798    0.4400 C   0  0  0  0  0  0  0  0  0  0  0  0
    4.4878   -0.5612    0.4451 C   0  0  0  0  0  0  0  0  0  0  0  0
  1  2  1  0  0  0  0 
  1  3  1  0  0  0  0 
  2  4  1  0  0  0  0 
  3  5  1  0  0  0  0 
  4  6  1  0  0  0  0 
  5  7  1  0  0  0  0 
  6  8  1  0  0  0  0 
  7  9  1  0  0  0  0 
  8 10  2  0  0  0  0 
  9 11  2  0  0  0  0 
M  END
> <Name>
Ethene, 1,1'-(oxybis(2,1-ethanediyloxy))bis-

> <Source>
DougDB3DMolFile

> <Tox>
-1.638

> <CAS>
764-99-8

$$$$

  CDK

 14 13  0  0  0  0  0  0  0  0999 V2000
    0.0000    0.0000    0.0000 Br  0  0  0  0  0  0  0  0  0  0  0  0
   -1.0200   -0.2600   -1.6000 C   0  0  0  0  0  0  0  0  0  0  0  0
   -1.5600    1.0800   -2.0600 C   0  0  0  0  0  0  0  0  0  0  0  0
   -2.6600    1.6200   -1.1200 C   0  0  0  0  0  0  0  0  0  0  0  0
   -2.8600    3.1400   -1.2800 C   0  0  0  0  0  0  0  0  0  0  0  0
   -3.6600    3.7400   -0.1200 C   0  0  0  0  0  0  0  0  0  0  0  0
   -3.5000    5.2600   -0.0200 C   0  0  0  0  0  0  0  0  0  0  0  0
   -4.0000    5.8200    1.3000 C   0  0  0  0  0  0  0  0  0  0  0  0
   -3.6000    7.2800    1.5200 C   0  0  0  0  0  0  0  0  0  0  0  0
   -3.9200    7.7800    2.9200 C   0  0  0  0  0  0  0  0  0  0  0  0
   -3.3600    9.1800    3.2000 C   0  0  0  0  0  0  0  0  0  0  0  0
   -3.6000    9.6400    4.6400 C   0  0  0  0  0  0  0  0  0  0  0  0
   -2.9800   11.0000    4.9400 C   0  0  0  0  0  0  0  0  0  0  0  0
   -3.2000   11.4400    6.3800 C   0  0  0  0  0  0  0  0  0  0  0  0
  1  2  1  0  0  0  0 
  2  3  1  0  0  0  0 
  3  4  1  0  0  0  0 
  4  5  1  0  0  0  0 
  5  6  1  0  0  0  0 
  6  7  1  0  0  0  0 
  7  8  1  0  0  0  0 
  8  9  1  0  0  0  0 
  9 10  1  0  0  0  0 
 10 11  1  0  0  0  0 
 11 12  1  0  0  0  0 
 12 13  1  0  0  0  0 
 13 14  1  0  0  0  0 
M  END
> <Name>
1-BROMO-N-TRIDECANE

> <Source>
NIH3DMolFile

> <Tox>
-2.866

> <CAS>
765-09-3

$$$$

  CDK

  9  9  0  0  0  0  0  0  0  0999 V2000
    0.0000    0.7899    0.0000 C   0  0  0  0  0  0  0  0  0  0  0  0
    0.5430    1.7279    0.0000 O   0  0  0  0  0  0  0  0  0  0  0  0
    1.5304    1.7279    0.0000 C   0  0  0  0  0  0  0  0  0  0  0  0
    2.0241    0.8392    0.0000 C   0  0  0  0  0  0  0  0  0  0  0  0
    2.0241    2.5671    0.0000 C   0  0  0  0  0  0  0  0  0  0  0  0
    1.5304    0.0000    0.0000 Cl  0  0  0  0  0  0  0  0  0  0  0  0
    3.0114    0.8392    0.0000 C   0  0  0  0  0  0  0  0  0  0  0  0
    3.0114    2.5671    0.0000 C   0  0  0  0  0  0  0  0  0  0  0  0
    3.5051    1.7279    0.0000 C   0  0  0  0  0  0  0  0  0  0  0  0
  1  2  1  0  0  0  0 
  2  3  1  0  0  0  0 
  3  4  2  0  0  0  0 
  5  3  1  0  0  0  0 
  4  6  1  0  0  0  0 
  4  7  1  0  0  0  0 
  8  5  2  0  0  0  0 
  7  9  2  0  0  0  0 
  9  8  1  0  0  0  0 
M  END
> <Name>
O-CHLOROANISOLE

> <Source>
NIST2DMolFile

> <Tox>
-0.623

> <CAS>
766-51-8

$$$$

  CDK

  9  9  0  0  0  0  0  0  0  0999 V2000
    0.5037    0.1511    0.0000 C   0  0  0  0  0  0  0  0  0  0  0  0
    0.0000    1.0073    0.0000 C   0  0  0  0  0  0  0  0  0  0  0  0
    1.5110    0.1511    0.0000 C   0  0  0  0  0  0  0  0  0  0  0  0
    0.5037    1.8635    0.0000 C   0  0  0  0  0  0  0  0  0  0  0  0
    2.0146    1.0073    0.0000 C   0  0  0  0  0  0  0  0  0  0  0  0
    1.5110    1.8635    0.0000 C   0  0  0  0  0  0  0  0  0  0  0  0
    3.0220    1.0073    0.0000 Si  0  0  0  0  0  0  0  0  0  0  0  0
    3.0220    0.0000    0.0000 C   0  0  0  0  0  0  0  0  0  0  0  0
    3.7271    1.7125    0.0000 C   0  0  0  0  0  0  0  0  0  0  0  0
  1  2  2  0  0  0  0 
  3  1  1  0  0  0  0 
  2  4  1  0  0  0  0 
  5  3  2  0  0  0  0 
  4  6  2  0  0  0  0 
  5  7  1  0  0  0  0 
  6  5  1  0  0  0  0 
  7  8  1  0  0  0  0 
  7  9  1  0  0  0  0 
M  END
> <Name>
SILANE, DIMETHYL PHENYL

> <Source>
NIST2DMolFile

> <Tox>
0.565

> <CAS>
766-77-8

$$$$

  CDK

 10 10  0  0  0  0  0  0  0  0999 V2000
    2.2516    0.1285    1.9138 Cl  0  0  0  0  0  0  0  0  0  0  0  0
    1.7631   -0.0048   -0.0800 Si  0  0  0  0  0  0  0  0  0  0  0  0
   -0.1002   -0.0017   -0.0463 C   0  0  0  0  0  0  0  0  0  0  0  0
    2.4944    1.4622   -0.9570 C   0  0  0  0  0  0  0  0  0  0  0  0
    2.4604   -1.5922   -0.7542 C   0  0  0  0  0  0  0  0  0  0  0  0
   -0.7955    1.2076   -0.0433 C   0  0  0  0  0  0  0  0  0  0  0  0
   -0.7997   -1.2084   -0.0234 C   0  0  0  0  0  0  0  0  0  0  0  0
   -2.1901    1.2104   -0.0174 C   0  0  0  0  0  0  0  0  0  0  0  0
   -2.1944   -1.2055    0.0024 C   0  0  0  0  0  0  0  0  0  0  0  0
   -2.8895    0.0039    0.0055 C   0  0  0  0  0  0  0  0  0  0  0  0
  1  2  1  0  0  0  0 
  2  3  1  0  0  0  0 
  2  4  1  0  0  0  0 
  2  5  1  0  0  0  0 
  3  6  2  0  0  0  0 
  3  7  1  0  0  0  0 
  6  8  1  0  0  0  0 
  7  9  2  0  0  0  0 
  8 10  2  0  0  0  0 
  9 10  1  0  0  0  0 
M  END
> <Name>
CHLORODIMETHYLPHENYLSILANE

> <Source>
Chemidplus3DMolFile

> <Tox>
-0.140

> <CAS>
768-33-2

$$$$

  CDK

 11 11  0  0  0  0  0  0  0  0999 V2000
    3.6376   -1.1804   -0.0253 Cl  0  0  0  0  0  0  0  0  0  0  0  0
    2.1031    0.0958    0.1412 P   0  0  0  0  0  0  0  0  0  0  0  0
    2.1571    1.1494   -1.5604 Cl  0  0  0  0  0  0  0  0  0  0  0  0
    0.8067   -0.8613    0.0209 O   0  0  0  0  0  0  0  0  0  0  0  0
    2.2077    0.9368    1.3792 O   0  0  0  0  0  0  0  0  0  0  0  0
   -0.4899   -0.4474    0.0138 C   0  0  0  0  0  0  0  0  0  0  0  0
   -0.7890    0.9111    0.1163 C   0  0  0  0  0  0  0  0  0  0  0  0
   -1.5196   -1.3819   -0.0952 C   0  0  0  0  0  0  0  0  0  0  0  0
   -2.1178    1.3352    0.1101 C   0  0  0  0  0  0  0  0  0  0  0  0
   -2.8485   -0.9579   -0.1016 C   0  0  0  0  0  0  0  0  0  0  0  0
   -3.1475    0.4007    0.0010 C   0  0  0  0  0  0  0  0  0  0  0  0
  1  2  1  0  0  0  0 
  3  2  1  0  0  0  0 
  2  4  1  0  0  0  0 
  2  5  2  0  0  0  0 
  4  6  1  0  0  0  0 
  6  7  2  0  0  0  0 
  6  8  1  0  0  0  0 
  7  9  1  0  0  0  0 
  8 10  2  0  0  0  0 
  9 11  2  0  0  0  0 
 10 11  1  0  0  0  0 
M  END
> <Name>
PHENYL DICHLOROPHOSPHATE

> <Source>
Chemidplus3DMolFile

> <Tox>
-1.280

> <CAS>
770-12-7

$$$$

  CDK

 12 12  0  0  0  0  0  0  0  0999 V2000
    1.4484    2.5972    0.0000 C   0  0  0  0  0  0  0  0  0  0  0  0
    0.9490    1.7481    0.0000 C   0  0  0  0  0  0  0  0  0  0  0  0
    2.4474    2.5972    0.0000 C   0  0  0  0  0  0  0  0  0  0  0  0
    0.9490    3.4963    0.0000 F   0  0  0  0  0  0  0  0  0  0  0  0
    1.4484    0.8990    0.0000 C   0  0  0  0  0  0  0  0  0  0  0  0
    0.0000    1.7481    0.0000 F   0  0  0  0  0  0  0  0  0  0  0  0
    2.9468    3.4963    0.0000 F   0  0  0  0  0  0  0  0  0  0  0  0
    2.9468    1.7481    0.0000 C   0  0  0  0  0  0  0  0  0  0  0  0
    2.4474    0.8990    0.0000 C   0  0  0  0  0  0  0  0  0  0  0  0
    0.9490    0.0000    0.0000 O   0  0  0  0  0  0  0  0  0  0  0  0
    3.9458    1.7481    0.0000 F   0  0  0  0  0  0  0  0  0  0  0  0
    2.9468    0.0000    0.0000 F   0  0  0  0  0  0  0  0  0  0  0  0
  1  2  2  0  0  0  0 
  3  1  1  0  0  0  0 
  1  4  1  0  0  0  0 
  2  5  1  0  0  0  0 
  2  6  1  0  0  0  0 
  3  7  1  0  0  0  0 
  8  3  2  0  0  0  0 
  5  9  2  0  0  0  0 
  5 10  1  0  0  0  0 
  9  8  1  0  0  0  0 
  8 11  1  0  0  0  0 
  9 12  1  0  0  0  0 
M  END
> <Name>
PENTAFLUOROPHENOL

> <Source>
NIST2DMolFile

> <Tox>
0.464

> <CAS>
771-61-9

$$$$

  CDK

 14 16  0  0  0  0  0  0  0  0999 V2000
    2.8797    2.5925    4.6844 C   0  0  0  0  0  0  0  0  0  0  0  0
    2.3485    2.1135    3.4062 C   0  0  0  0  0  0  0  0  0  0  0  0
    4.1013    3.2814    4.7123 C   0  0  0  0  0  0  0  0  0  0  0  0
    2.1873    2.3697    5.8778 C   0  0  0  0  0  0  0  0  0  0  0  0
    2.8926    2.5945    2.2060 C   0  0  0  0  0  0  0  0  0  0  0  0
    1.3040    1.1857    3.3659 C   0  0  0  0  0  0  0  0  0  0  0  0
    4.8748    3.4780    3.4512 C   0  0  0  0  0  0  0  0  0  0  0  0
    4.6023    3.7497    5.9268 C   0  0  0  0  0  0  0  0  0  0  0  0
    2.6938    2.8387    7.0823 C   0  0  0  0  0  0  0  0  0  0  0  0
    3.9707    3.6261    2.2376 C   0  0  0  0  0  0  0  0  0  0  0  0
    2.3971    2.1295    0.9881 C   0  0  0  0  0  0  0  0  0  0  0  0
    0.8164    0.7290    2.1490 C   0  0  0  0  0  0  0  0  0  0  0  0
    3.8998    3.5321    7.1063 C   0  0  0  0  0  0  0  0  0  0  0  0
    1.3656    1.1984    0.9598 C   0  0  0  0  0  0  0  0  0  0  0  0
  2  1  1  0  0  0  0 
  3  1  1  0  0  0  0 
  1  4  2  0  0  0  0 
  2  5  1  0  0  0  0 
  6  2  2  0  0  0  0 
  3  7  1  0  0  0  0 
  8  3  2  0  0  0  0 
  4  9  1  0  0  0  0 
  5 10  1  0  0  0  0 
  5 11  2  0  0  0  0 
 12  6  1  0  0  0  0 
 10  7  1  0  0  0  0 
 13  8  1  0  0  0  0 
  9 13  2  0  0  0  0 
 11 14  1  0  0  0  0 
 14 12  2  0  0  0  0 
M  END
> <Name>
9,10-DIHYDROPHENANTHRENE

> <Source>
NIST3DMolFile

> <Tox>
-3.222

> <CAS>
776-35-2

$$$$

  CDK

 15 17  0  0  0  0  0  0  0  0999 V2000
    0.0002    2.7192   -0.0024 C   0  0  0  0  0  0  0  0  0  0  0  0
    0.0001    1.2122   -0.0035 C   0  0  0  0  0  0  0  0  0  0  0  0
    1.2043    0.5109   -0.0011 C   0  0  0  0  0  0  0  0  0  0  0  0
   -1.2044    0.5108   -0.0011 C   0  0  0  0  0  0  0  0  0  0  0  0
    1.2042   -0.9558   -0.0017 C   0  0  0  0  0  0  0  0  0  0  0  0
    2.4425    1.1888    0.0014 C   0  0  0  0  0  0  0  0  0  0  0  0
   -1.2044   -0.9556   -0.0017 C   0  0  0  0  0  0  0  0  0  0  0  0
   -2.4425    1.1888    0.0014 C   0  0  0  0  0  0  0  0  0  0  0  0
    0.0001   -1.6570   -0.0047 C   0  0  0  0  0  0  0  0  0  0  0  0
    2.4422   -1.6341    0.0003 C   0  0  0  0  0  0  0  0  0  0  0  0
    3.5970    0.4749    0.0033 C   0  0  0  0  0  0  0  0  0  0  0  0
   -2.4423   -1.6340    0.0003 C   0  0  0  0  0  0  0  0  0  0  0  0
   -3.5970    0.4749    0.0033 C   0  0  0  0  0  0  0  0  0  0  0  0
    3.5969   -0.9205    0.0027 C   0  0  0  0  0  0  0  0  0  0  0  0
   -3.5970   -0.9204    0.0027 C   0  0  0  0  0  0  0  0  0  0  0  0
  1  2  1  0  0  0  0 
  2  3  2  0  0  0  0 
  2  4  1  0  0  0  0 
  3  5  1  0  0  0  0 
  3  6  1  0  0  0  0 
  4  7  2  0  0  0  0 
  4  8  1  0  0  0  0 
  5  9  2  0  0  0  0 
  5 10  1  0  0  0  0 
  6 11  2  0  0  0  0 
  7 12  1  0  0  0  0 
  7  9  1  0  0  0  0 
  8 13  2  0  0  0  0 
 10 14  2  0  0  0  0 
 11 14  1  0  0  0  0 
 12 15  2  0  0  0  0 
 13 15  1  0  0  0  0 
M  END
> <Name>
9-METHYLANTHRACENE

> <Source>
NIH3DMolFile

> <Tox>
-4.398

> <CAS>
779-02-2

$$$$

  CDK

 19 20  0  0  0  0  0  0  0  0999 V2000
    6.9074   -2.6598    0.0000 C   0  0  0  0  0  0  0  0  0  0  0  0
    8.0600   -3.3288    0.0000 C   0  0  0  0  0  0  0  0  0  0  0  0
    5.7549   -3.3288    0.0000 C   0  0  0  0  0  0  0  0  0  0  0  0
    8.0600   -4.6587    0.0000 C   0  0  0  0  0  0  0  0  0  0  0  0
    5.7549   -4.6587    0.0000 C   0  0  0  0  0  0  0  0  0  0  0  0
    4.6023   -2.6598    0.0000 C   0  0  0  0  0  0  0  0  0  0  0  0
    6.9074   -5.3196    0.0000 C   0  0  0  0  0  0  0  0  0  0  0  0
    4.6023   -5.3196    0.0000 Cl  0  0  0  0  0  0  0  0  0  0  0  0
    4.6023   -1.3299    0.0000 C   0  0  0  0  0  0  0  0  0  0  0  0
    3.4577   -3.3288    0.0000 C   0  0  0  0  0  0  0  0  0  0  0  0
    4.6023   -0.0000    0.0000 Cl  0  0  0  0  0  0  0  0  0  0  0  0
    5.9322   -1.3299    0.0000 Cl  0  0  0  0  0  0  0  0  0  0  0  0
    3.2724   -1.3299    0.0000 Cl  0  0  0  0  0  0  0  0  0  0  0  0
    3.4577   -4.6587    0.0000 C   0  0  0  0  0  0  0  0  0  0  0  0
    2.3052   -2.6598    0.0000 C   0  0  0  0  0  0  0  0  0  0  0  0
    2.3052   -5.3196    0.0000 C   0  0  0  0  0  0  0  0  0  0  0  0
    1.1526   -3.3288    0.0000 C   0  0  0  0  0  0  0  0  0  0  0  0
    1.1526   -4.6587    0.0000 C   0  0  0  0  0  0  0  0  0  0  0  0
    0.0000   -5.3196    0.0000 Cl  0  0  0  0  0  0  0  0  0  0  0  0
  1  2  1  0  0  0  0 
  1  3  2  0  0  0  0 
  2  4  2  0  0  0  0 
  5  3  1  0  0  0  0 
  3  6  1  0  0  0  0 
  4  7  1  0  0  0  0 
  7  5  2  0  0  0  0 
  5  8  1  0  0  0  0 
  6  9  1  0  0  0  0 
  6 10  1  0  0  0  0 
  9 11  1  0  0  0  0 
  9 12  1  0  0  0  0 
  9 13  1  0  0  0  0 
 10 14  2  0  0  0  0 
 10 15  1  0  0  0  0 
 14 16  1  0  0  0  0 
 17 15  2  0  0  0  0 
 16 18  2  0  0  0  0 
 18 17  1  0  0  0  0 
 18 19  1  0  0  0  0 
M  END
> <Name>
O,P'-DDT

> <Source>
DSSTox2DMolFile

> <Tox>
-5.870

> <CAS>
789-02-6

$$$$

  CDK

  6  5  0  0  0  0  0  0  0  0999 V2000
    3.4542   -1.1537    0.0000 F   0  0  0  0  0  0  0  0  0  0  0  0
    2.3040   -0.4870    0.0000 C   0  0  0  0  0  0  0  0  0  0  0  0
    1.1503   -1.1537    0.0000 C   0  0  0  0  0  0  0  0  0  0  0  0
    1.8169   -2.3040    0.0000 F   0  0  0  0  0  0  0  0  0  0  0  0
    0.0000   -1.8169    0.0000 F   0  0  0  0  0  0  0  0  0  0  0  0
    0.4870   -0.0000    0.0000 F   0  0  0  0  0  0  0  0  0  0  0  0
  1  2  1  0  0  0  0 
  2  3  1  0  0  0  0 
  3  4  1  0  0  0  0 
  3  5  1  0  0  0  0 
  3  6  1  0  0  0  0 
M  END
> <Name>
1,1,1,2-TETRAFLUOROETHANE

> <Source>
DSSTox2DMolFile

> <Tox>
3.698

> <CAS>
811-97-2

$$$$

  CDK

  6  5  0  0  0  0  0  0  0  0999 V2000
   -2.4176   -0.6111   -0.6655 Br  0  0  0  0  0  0  0  0  0  0  0  0
   -1.3312    0.0564    0.7882 C   0  0  0  0  0  0  0  0  0  0  0  0
    0.0323    0.3379    0.2169 C   0  0  0  0  0  0  0  0  0  0  0  0
    0.2877    1.4245   -0.3025 O   0  0  0  0  0  0  0  0  0  0  0  0
    1.0478   -0.7897    0.2933 C   0  0  0  0  0  0  0  0  0  0  0  0
    2.3810   -0.4180   -0.3305 C   0  0  0  0  0  0  0  0  0  0  0  0
  1  2  1  0  0  0  0 
  3  2  1  0  0  0  0 
  4  3  2  0  0  0  0 
  5  3  1  0  0  0  0 
  5  6  1  0  0  0  0 
M  END
> <Name>
1-BROMO-2-BUTANONE

> <Source>
Chemidplus3DMolFile

> <Tox>
0.560

> <CAS>
816-40-0

$$$$

  CDK

  7  6  0  0  0  0  0  0  0  0999 V2000
    3.2429    0.6631    2.4628 C   0  0  0  0  0  0  0  0  0  0  0  0
    3.1123    1.7894    1.4871 C   0  0  0  0  0  0  0  0  0  0  0  0
    3.3851    1.1651    3.8842 C   0  0  0  0  0  0  0  0  0  0  0  0
    4.3903    2.4737    1.1086 C   0  0  0  0  0  0  0  0  0  0  0  0
    1.9400    2.1447    0.9438 C   0  0  0  0  0  0  0  0  0  0  0  0
    4.2166    3.9250    0.7167 C   0  0  0  0  0  0  0  0  0  0  0  0
    0.6433    1.4954    1.2266 C   0  0  0  0  0  0  0  0  0  0  0  0
  1  2  1  0  0  0  0 
  1  3  1  0  0  0  0 
  2  4  1  0  0  0  0 
  2  5  2  0  0  0  0 
  4  6  1  0  0  0  0 
  5  7  1  0  0  0  0 
M  END
> <Name>
3-ETHYL-2-PENTENE

> <Source>
NIST3DMolFile

> <Tox>
1.723

> <CAS>
816-79-5

$$$$

  CDK

 13 12  0  0  0  0  0  0  0  0999 V2000
    3.4898    1.4956    0.0000 C   0  0  0  0  0  0  0  0  0  0  0  0
    2.5924    0.9971    0.0000 C   0  0  0  0  0  0  0  0  0  0  0  0
    4.3373    0.9971    0.0000 C   0  0  0  0  0  0  0  0  0  0  0  0
    1.7449    1.4956    0.0000 O   0  0  0  0  0  0  0  0  0  0  0  0
    2.5924    0.0000    0.0000 O   0  0  0  0  0  0  0  0  0  0  0  0
    5.1848    1.4956    0.0000 C   0  0  0  0  0  0  0  0  0  0  0  0
    0.8974    0.9971    0.0000 C   0  0  0  0  0  0  0  0  0  0  0  0
    6.0822    0.9971    0.0000 C   0  0  0  0  0  0  0  0  0  0  0  0
    0.0000    1.4956    0.0000 C   0  0  0  0  0  0  0  0  0  0  0  0
    6.9297    1.4956    0.0000 O   0  0  0  0  0  0  0  0  0  0  0  0
    6.0822    0.0000    0.0000 O   0  0  0  0  0  0  0  0  0  0  0  0
    7.7772    0.9971    0.0000 C   0  0  0  0  0  0  0  0  0  0  0  0
    8.6746    1.4956    0.0000 C   0  0  0  0  0  0  0  0  0  0  0  0
  1  2  1  0  0  0  0 
  1  3  1  0  0  0  0 
  2  4  1  0  0  0  0 
  2  5  2  0  0  0  0 
  3  6  1  0  0  0  0 
  4  7  1  0  0  0  0 
  6  8  1  0  0  0  0 
  7  9  1  0  0  0  0 
  8 10  1  0  0  0  0 
  8 11  2  0  0  0  0 
 10 12  1  0  0  0  0 
 12 13  1  0  0  0  0 
M  END
> <Name>
DIETHYL GLUTARATE

> <Source>
NIST2DMolFile

> <Tox>
-0.793

> <CAS>
818-38-2

$$$$

  CDK

  6  5  0  0  0  0  0  0  0  0999 V2000
   -2.6215   -0.7796   -0.1331 O   0  0  0  0  0  0  0  0  0  0  0  0
   -1.9267    0.3872    0.2845 C   0  0  0  0  0  0  0  0  0  0  0  0
   -0.5733    0.3924   -0.3476 C   0  0  0  0  0  0  0  0  0  0  0  0
    0.5734    0.3923    0.3476 C   0  0  0  0  0  0  0  0  0  0  0  0
    1.9268    0.3872   -0.2845 C   0  0  0  0  0  0  0  0  0  0  0  0
    2.6214   -0.7796    0.1331 O   0  0  0  0  0  0  0  0  0  0  0  0
  1  2  1  0  0  0  0 
  3  2  1  0  0  0  0 
  3  4  2  0  0  0  0 
  4  5  1  0  0  0  0 
  6  5  1  0  0  0  0 
M  END
> <Name>
2-BUTENE-1,4-DIOL (TRANS)

> <Source>
Chemidplus3DMolFile

> <Tox>
-2.156

> <CAS>
821-11-4

$$$$

  CDK

 11 10  0  0  0  0  0  0  0  0999 V2000
    5.4888    2.0232    2.4616 C   0  0  0  0  0  0  0  0  0  0  0  0
    4.0651    2.3982    2.8395 C   0  0  0  0  0  0  0  0  0  0  0  0
    6.3609    1.8544    3.6952 C   0  0  0  0  0  0  0  0  0  0  0  0
    3.1698    2.5881    1.6236 C   0  0  0  0  0  0  0  0  0  0  0  0
    7.7858    1.4824    3.3189 C   0  0  0  0  0  0  0  0  0  0  0  0
    3.3959    3.9231    0.9269 C   0  0  0  0  0  0  0  0  0  0  0  0
    8.6570    1.3054    4.5522 C   0  0  0  0  0  0  0  0  0  0  0  0
    3.0679    5.1170    1.8151 C   0  0  0  0  0  0  0  0  0  0  0  0
   10.0757    0.9386    4.1801 C   0  0  0  0  0  0  0  0  0  0  0  0
    1.6046    5.3760    1.8883 C   0  0  0  0  0  0  0  0  0  0  0  0
    1.0682    6.5735    1.6856 C   0  0  0  0  0  0  0  0  0  0  0  0
  1  2  1  0  0  0  0 
  1  3  1  0  0  0  0 
  2  4  1  0  0  0  0 
  3  5  1  0  0  0  0 
  4  6  1  0  0  0  0 
  5  7  1  0  0  0  0 
  6  8  1  0  0  0  0 
  7  9  1  0  0  0  0 
  8 10  1  0  0  0  0 
 10 11  2  0  0  0  0 
M  END
> <Name>
1-UNDECENE

> <Source>
NIST3DMolFile

> <Tox>
-0.307

> <CAS>
821-95-4

$$$$

  CDK

  7  7  0  0  0  0  0  0  0  0999 V2000
    4.4973    2.6466    1.9079 C   0  0  0  0  0  0  0  0  0  0  0  0
    3.2109    2.8333    1.1293 C   0  0  0  0  0  0  0  0  0  0  0  0
    2.0595    1.9783    1.6885 C   0  0  0  0  0  0  0  0  0  0  0  0
    2.7129    4.2833    1.1701 C   0  0  0  0  0  0  0  0  0  0  0  0
    2.0263    0.5864    1.0920 C   0  0  0  0  0  0  0  0  0  0  0  0
    0.7872    2.7728    1.3841 C   0  0  0  0  0  0  0  0  0  0  0  0
    1.1966    4.2410    1.3456 C   0  0  0  0  0  0  0  0  0  0  0  0
  1  2  1  0  0  0  0 
  2  3  1  0  0  0  0 
  4  2  1  0  0  0  0 
  3  5  1  0  0  0  0 
  3  6  1  0  0  0  0 
  7  4  1  0  0  0  0 
  6  7  1  0  0  0  0 
M  END
> <Name>
1,2-DIMETHYLCYCLOPENTANE (TRANS)

> <Source>
NIST3DMolFile

> <Tox>
1.806

> <CAS>
822-50-4

$$$$

  CDK

  9  9  0  0  0  0  0  0  0  0999 V2000
    3.4478   -2.0070    0.0000 C   0  0  0  0  0  0  0  0  0  0  0  0
    3.4478   -3.3374    0.0000 C   0  0  0  0  0  0  0  0  0  0  0  0
    2.3108   -1.3349    0.0000 C   0  0  0  0  0  0  0  0  0  0  0  0
    4.6033   -1.3349    0.0000 N   0  0  0  0  0  0  0  0  0  0  0  0
    2.3108   -3.9956    0.0000 C   0  0  0  0  0  0  0  0  0  0  0  0
    1.1554   -2.0070    0.0000 C   0  0  0  0  0  0  0  0  0  0  0  0
    2.3108   -0.0000    0.0000 C   0  0  0  0  0  0  0  0  0  0  0  0
    1.1554   -3.3374    0.0000 C   0  0  0  0  0  0  0  0  0  0  0  0
    0.0000   -1.3349    0.0000 N   0  0  0  0  0  0  0  0  0  0  0  0
  1  2  2  0  0  0  0 
  1  3  1  0  0  0  0 
  1  4  1  0  0  0  0 
  2  5  1  0  0  0  0 
  6  3  2  0  0  0  0 
  3  7  1  0  0  0  0 
  5  8  2  0  0  0  0 
  8  6  1  0  0  0  0 
  6  9  1  0  0  0  0 
M  END
> <Name>
2,6-DIAMINOTOLUENE

> <Source>
DSSTox2DMolFile

> <Tox>
-2.609

> <CAS>
823-40-5

$$$$

  CDK

 12 13  0  0  0  0  0  0  0  0999 V2000
    3.3499    1.7368    4.4348 C   0  0  0  0  0  0  0  0  0  0  0  0
    3.8009    3.1447    4.8303 C   0  0  0  0  0  0  0  0  0  0  0  0
    2.5536    1.0914    5.5733 C   0  0  0  0  0  0  0  0  0  0  0  0
    2.5076    1.7661    3.1897 C   0  0  0  0  0  0  0  0  0  0  0  0
    4.5880    3.1290    6.1297 C   0  0  0  0  0  0  0  0  0  0  0  0
    3.3590    1.0754    6.8622 C   0  0  0  0  0  0  0  0  0  0  0  0
    2.6684    0.7852    2.2108 C   0  0  0  0  0  0  0  0  0  0  0  0
    1.5451    2.7620    3.0112 C   0  0  0  0  0  0  0  0  0  0  0  0
    3.7915    2.4802    7.2502 C   0  0  0  0  0  0  0  0  0  0  0  0
    1.8733    0.8011    1.0698 C   0  0  0  0  0  0  0  0  0  0  0  0
    0.7521    2.7756    1.8711 C   0  0  0  0  0  0  0  0  0  0  0  0
    0.9146    1.7938    0.8986 C   0  0  0  0  0  0  0  0  0  0  0  0
  1  2  1  0  0  0  0 
  1  3  1  0  0  0  0 
  1  4  1  0  0  0  0 
  2  5  1  0  0  0  0 
  6  3  1  0  0  0  0 
  4  7  2  0  0  0  0 
  8  4  1  0  0  0  0 
  9  5  1  0  0  0  0 
  9  6  1  0  0  0  0 
  7 10  1  0  0  0  0 
 11  8  2  0  0  0  0 
 10 12  2  0  0  0  0 
 12 11  1  0  0  0  0 
M  END
> <Name>
PHENYL CYCLOHEXANE

> <Source>
NIST3DMolFile

> <Tox>
-1.399

> <CAS>
827-52-1

$$$$

  CDK

 13 13  0  0  0  0  0  0  0  0999 V2000
    3.4852   -0.6820    0.0000 C   0  0  0  0  0  0  0  0  0  0  0  0
    3.4852   -2.0271    0.0000 C   0  0  0  0  0  0  0  0  0  0  0  0
    2.3188   -0.0000    0.0000 C   0  0  0  0  0  0  0  0  0  0  0  0
    4.5246   -0.1599    0.0000 O   0  0  0  0  0  0  0  0  0  0  0  0
    4.6563   -2.6903    0.0000 C   0  0  0  0  0  0  0  0  0  0  0  0
    1.1664   -0.6820    0.0000 C   0  0  0  0  0  0  0  0  0  0  0  0
    4.6563   -4.0402    0.0000 C   0  0  0  0  0  0  0  0  0  0  0  0
    1.1664   -2.0271    0.0000 C   0  0  0  0  0  0  0  0  0  0  0  0
    3.4852   -4.7034    0.0000 C   0  0  0  0  0  0  0  0  0  0  0  0
    0.0000   -2.6903    0.0000 C   0  0  0  0  0  0  0  0  0  0  0  0
    2.3188   -4.0402    0.0000 C   0  0  0  0  0  0  0  0  0  0  0  0
    0.0000   -4.0402    0.0000 C   0  0  0  0  0  0  0  0  0  0  0  0
    1.1664   -4.7034    0.0000 C   0  0  0  0  0  0  0  0  0  0  0  0
  1  2  1  0  0  0  0 
  1  3  1  0  0  0  0 
  1  4  2  0  0  0  0 
  2  5  1  0  0  0  0 
  6  3  1  0  0  0  0 
  5  7  1  0  0  0  0 
  8  6  1  0  0  0  0 
  7  9  1  0  0  0  0 
 10  8  1  0  0  0  0 
  9 11  1  0  0  0  0 
 12 10  1  0  0  0  0 
 11 13  1  0  0  0  0 
 13 12  1  0  0  0  0 
M  END
> <Name>
CYCLODODECANONE

> <Source>
DSSTox2DMolFile

> <Tox>
-2.357

> <CAS>
830-13-7

$$$$

  CDK

 15 17  0  0  0  0  0  0  0  0999 V2000
    6.6487   -2.3071    0.0000 C   0  0  0  0  0  0  0  0  0  0  0  0
    5.9839   -3.4573    0.0000 C   0  0  0  0  0  0  0  0  0  0  0  0
    5.9839   -1.1569    0.0000 C   0  0  0  0  0  0  0  0  0  0  0  0
    4.6541   -3.4573    0.0000 C   0  0  0  0  0  0  0  0  0  0  0  0
    4.6541   -1.1569    0.0000 C   0  0  0  0  0  0  0  0  0  0  0  0
    3.9892   -2.3071    0.0000 C   0  0  0  0  0  0  0  0  0  0  0  0
    3.9892   -0.0000    0.0000 C   0  0  0  0  0  0  0  0  0  0  0  0
    2.6595   -2.3071    0.0000 C   0  0  0  0  0  0  0  0  0  0  0  0
    2.6595   -0.0000    0.0000 C   0  0  0  0  0  0  0  0  0  0  0  0
    1.9946   -3.4573    0.0000 C   0  0  0  0  0  0  0  0  0  0  0  0
    1.9946   -1.1569    0.0000 C   0  0  0  0  0  0  0  0  0  0  0  0
    0.6649   -3.4573    0.0000 C   0  0  0  0  0  0  0  0  0  0  0  0
    0.6649   -1.1569    0.0000 C   0  0  0  0  0  0  0  0  0  0  0  0
    0.0000   -2.3071    0.0000 C   0  0  0  0  0  0  0  0  0  0  0  0
    0.0000   -0.0000    0.0000 C   0  0  0  0  0  0  0  0  0  0  0  0
  1  2  2  0  0  0  0 
  1  3  1  0  0  0  0 
  2  4  1  0  0  0  0 
  5  3  2  0  0  0  0 
  4  6  2  0  0  0  0 
  6  5  1  0  0  0  0 
  7  5  1  0  0  0  0 
  6  8  1  0  0  0  0 
  9  7  2  0  0  0  0 
  8 10  2  0  0  0  0 
  8 11  1  0  0  0  0 
 11  9  1  0  0  0  0 
 10 12  1  0  0  0  0 
 13 11  2  0  0  0  0 
 12 14  2  0  0  0  0 
 14 13  1  0  0  0  0 
 13 15  1  0  0  0  0 
M  END
> <Name>
1-METHYLPHENANTHRENE

> <Source>
DSSTox2DMolFile

> <Tox>
-4.824

> <CAS>
832-69-9

$$$$

  CDK

 15 15  0  0  0  0  0  0  0  0999 V2000
    0.0000   -4.6386    0.0000 C   0  0  0  0  0  0  0  0  0  0  0  0
    1.1527   -3.9839    0.0000 C   0  0  0  0  0  0  0  0  0  0  0  0
    1.1527   -2.6375    0.0000 C   0  0  0  0  0  0  0  0  0  0  0  0
    2.3239   -4.6386    0.0000 N   0  0  0  0  0  0  0  0  0  0  0  0
    3.4582   -3.9839    0.0000 C   0  0  0  0  0  0  0  0  0  0  0  0
    4.6109   -4.6386    0.0000 N   0  0  0  0  0  0  0  0  0  0  0  0
    3.4582   -2.6375    0.0000 N   0  0  0  0  0  0  0  0  0  0  0  0
    5.7637   -3.9839    0.0000 C   0  0  0  0  0  0  0  0  0  0  0  0
    4.6109   -1.9827    0.0000 C   0  0  0  0  0  0  0  0  0  0  0  0
    6.9164   -4.6386    0.0000 N   0  0  0  0  0  0  0  0  0  0  0  0
    5.7637   -2.6375    0.0000 N   0  0  0  0  0  0  0  0  0  0  0  0
    4.6109   -0.6548    0.0000 S   0  0  0  0  0  0  0  0  0  0  0  0
    8.0692   -3.9839    0.0000 C   0  0  0  0  0  0  0  0  0  0  0  0
    3.4582   -0.0000    0.0000 C   0  0  0  0  0  0  0  0  0  0  0  0
    9.2219   -4.6386    0.0000 C   0  0  0  0  0  0  0  0  0  0  0  0
  1  2  1  0  0  0  0 
  3  2  1  0  0  0  0 
  2  4  1  0  0  0  0 
  4  5  1  0  0  0  0 
  6  5  2  0  0  0  0 
  7  5  1  0  0  0  0 
  8  6  1  0  0  0  0 
  9  7  2  0  0  0  0 
 10  8  1  0  0  0  0 
 11  8  2  0  0  0  0 
 12  9  1  0  0  0  0 
 11  9  1  0  0  0  0 
 13 10  1  0  0  0  0 
 14 12  1  0  0  0  0 
 15 13  1  0  0  0  0 
M  END
> <Name>
AMETRYNE

> <Source>
DSSTox2DMolFile

> <Tox>
-5.562

> <CAS>
834-12-8

$$$$

  CDK

  9  8  0  0  0  0  0  0  0  0999 V2000
    1.1530   -0.0000    0.0000 C   0  0  0  0  0  0  0  0  0  0  0  0
    1.1530   -1.3257    0.0000 C   0  0  0  0  0  0  0  0  0  0  0  0
    0.0000   -1.9954    0.0000 C   0  0  0  0  0  0  0  0  0  0  0  0
    2.2992   -1.9954    0.0000 C   0  0  0  0  0  0  0  0  0  0  0  0
    2.2992   -3.3210    0.0000 O   0  0  0  0  0  0  0  0  0  0  0  0
    3.4522   -1.3257    0.0000 O   0  0  0  0  0  0  0  0  0  0  0  0
    4.6053   -1.9954    0.0000 C   0  0  0  0  0  0  0  0  0  0  0  0
    5.7514   -1.3257    0.0000 C   0  0  0  0  0  0  0  0  0  0  0  0
    6.9045   -1.9954    0.0000 O   0  0  0  0  0  0  0  0  0  0  0  0
  1  2  2  0  0  0  0 
  2  3  1  0  0  0  0 
  2  4  1  0  0  0  0 
  4  5  2  0  0  0  0 
  4  6  1  0  0  0  0 
  6  7  1  0  0  0  0 
  7  8  1  0  0  0  0 
  8  9  1  0  0  0  0 
M  END
> <Name>
2-HYDROXYETHYL METHACRYLATE

> <Source>
DSSTox2DMolFile

> <Tox>
-0.900

> <CAS>
868-77-9

$$$$

  CDK

  6  5  0  0  0  0  0  0  0  0999 V2000
    1.6373   -0.0000    0.0000 O   0  0  0  0  0  0  0  0  0  0  0  0
    2.3034   -1.1517    0.0000 P   0  0  0  0  0  0  0  0  0  0  0  0
    2.9694   -2.3034    0.0000 O   0  0  0  0  0  0  0  0  0  0  0  0
    1.1517   -1.8178    0.0000 O   0  0  0  0  0  0  0  0  0  0  0  0
    4.2973   -2.3034    0.0000 C   0  0  0  0  0  0  0  0  0  0  0  0
    0.0000   -1.1517    0.0000 C   0  0  0  0  0  0  0  0  0  0  0  0
  1  2  2  0  0  0  0 
  2  3  1  0  0  0  0 
  2  4  1  0  0  0  0 
  3  5  1  0  0  0  0 
  4  6  1  0  0  0  0 
M  END
> <Name>
DIMETHYL PHOSPHITE

> <Source>
DSSTox2DMolFile

> <Tox>
0.655

> <CAS>
868-85-9

$$$$

  CDK

  4  3  0  0  0  0  0  0  0  0999 V2000
    0.5242    0.0000    0.0000 C   0  0  0  0  0  0  0  0  0  0  0  0
    1.5727    0.0000    0.0000 C   0  0  0  0  0  0  0  0  0  0  0  0
    0.0000    0.8388    0.0000 C   0  0  0  0  0  0  0  0  0  0  0  0
    2.0445    0.8388    0.0000 S   0  0  0  0  0  0  0  0  0  0  0  0
  1  2  1  0  0  0  0 
  1  3  2  0  0  0  0 
  2  4  1  0  0  0  0 
M  END
> <Name>
ALLYL MERCAPTAN

> <Source>
NIST2DMolFile

> <Tox>
2.719

> <CAS>
870-23-5

$$$$

  CDK

 10  9  0  0  0  0  0  0  0  0999 V2000
    5.4265    1.9912    5.3909 C   0  0  0  0  0  0  0  0  0  0  0  0
    3.9393    2.2938    5.2801 C   0  0  0  0  0  0  0  0  0  0  0  0
    6.2914    2.7810    4.4178 C   0  0  0  0  0  0  0  0  0  0  0  0
    3.2457    1.4994    4.1838 C   0  0  0  0  0  0  0  0  0  0  0  0
    6.3083    2.1839    3.0199 C   0  0  0  0  0  0  0  0  0  0  0  0
    1.7328    1.7219    4.2024 C   0  0  0  0  0  0  0  0  0  0  0  0
    7.1590    3.0126    2.0714 C   0  0  0  0  0  0  0  0  0  0  0  0
    1.0884    1.0815    2.9848 C   0  0  0  0  0  0  0  0  0  0  0  0
    1.1272    1.1644    5.4809 C   0  0  0  0  0  0  0  0  0  0  0  0
    7.1835    2.4138    0.6833 C   0  0  0  0  0  0  0  0  0  0  0  0
  1  2  1  0  0  0  0 
  1  3  1  0  0  0  0 
  2  4  1  0  0  0  0 
  3  5  1  0  0  0  0 
  4  6  1  0  0  0  0 
  5  7  1  0  0  0  0 
  6  8  1  0  0  0  0 
  6  9  1  0  0  0  0 
  7 10  1  0  0  0  0 
M  END
> <Name>
2-METHYLNONANE

> <Source>
NIST3DMolFile

> <Tox>
0.276

> <CAS>
871-83-0

$$$$

  CDK

 10  9  0  0  0  0  0  0  0  0999 V2000
    0.0000   -0.6716    0.0000 C   0  0  0  0  0  0  0  0  0  0  0  0
    1.1365   -0.0000    0.0000 C   0  0  0  0  0  0  0  0  0  0  0  0
    2.2833   -0.6716    0.0000 C   0  0  0  0  0  0  0  0  0  0  0  0
    3.4405   -0.0000    0.0000 C   0  0  0  0  0  0  0  0  0  0  0  0
    4.5874   -0.6716    0.0000 C   0  0  0  0  0  0  0  0  0  0  0  0
    5.7445   -0.0000    0.0000 C   0  0  0  0  0  0  0  0  0  0  0  0
    6.8914   -0.6716    0.0000 C   0  0  0  0  0  0  0  0  0  0  0  0
    8.0485   -0.0000    0.0000 C   0  0  0  0  0  0  0  0  0  0  0  0
    9.1954   -0.6716    0.0000 C   0  0  0  0  0  0  0  0  0  0  0  0
   10.3319   -0.0000    0.0000 C   0  0  0  0  0  0  0  0  0  0  0  0
  1  2  2  0  0  0  0 
  2  3  1  0  0  0  0 
  3  4  1  0  0  0  0 
  4  5  1  0  0  0  0 
  5  6  1  0  0  0  0 
  6  7  1  0  0  0  0 
  7  8  1  0  0  0  0 
  8  9  1  0  0  0  0 
  9 10  1  0  0  0  0 
M  END
> <Name>
1-DECENE

> <Source>
DSSTox2DMolFile

> <Tox>
0.223

> <CAS>
872-05-9

$$$$

  CDK

  6  6  0  0  0  0  0  0  0  0999 V2000
    1.3304   -1.0738    0.0000 C   0  0  0  0  0  0  0  0  0  0  0  0
    0.0000   -1.0738    0.0000 Br  0  0  0  0  0  0  0  0  0  0  0  0
    2.1104   -0.0000    0.0000 C   0  0  0  0  0  0  0  0  0  0  0  0
    2.1104   -2.1509    0.0000 C   0  0  0  0  0  0  0  0  0  0  0  0
    3.3767   -0.4086    0.0000 S   0  0  0  0  0  0  0  0  0  0  0  0
    3.3767   -1.7390    0.0000 C   0  0  0  0  0  0  0  0  0  0  0  0
  1  2  1  0  0  0  0 
  1  3  2  0  0  0  0 
  1  4  1  0  0  0  0 
  3  5  1  0  0  0  0 
  6  4  2  0  0  0  0 
  5  6  1  0  0  0  0 
M  END
> <Name>
3-BROMOTHIOPHENE

> <Source>
DSSTox2DMolFile

> <Tox>
1.220

> <CAS>
872-31-1

$$$$

  CDK

  7  7  0  0  0  0  0  0  0  0999 V2000
    0.0000   -2.3405    0.0000 O   0  0  0  0  0  0  0  0  0  0  0  0
    1.3291   -2.3405    0.0000 C   0  0  0  0  0  0  0  0  0  0  0  0
    2.1116   -1.2642    0.0000 N   0  0  0  0  0  0  0  0  0  0  0  0
    2.1116   -3.4168    0.0000 C   0  0  0  0  0  0  0  0  0  0  0  0
    3.3758   -1.6742    0.0000 C   0  0  0  0  0  0  0  0  0  0  0  0
    1.7015   -0.0000    0.0000 C   0  0  0  0  0  0  0  0  0  0  0  0
    3.3758   -3.0067    0.0000 C   0  0  0  0  0  0  0  0  0  0  0  0
  1  2  2  0  0  0  0 
  2  3  1  0  0  0  0 
  2  4  1  0  0  0  0 
  3  5  1  0  0  0  0 
  3  6  1  0  0  0  0 
  7  4  1  0  0  0  0 
  5  7  1  0  0  0  0 
M  END
> <Name>
N-METHYLPYRROLIDONE

> <Source>
DSSTox2DMolFile

> <Tox>
-0.462

> <CAS>
872-50-4

$$$$

  CDK

  7  7  0  0  0  0  0  0  0  0999 V2000
    3.2450    0.5900    0.0000 C   0  0  0  0  0  0  0  0  0  0  0  0
    2.5075    1.2784    0.0000 C   0  0  0  0  0  0  0  0  0  0  0  0
    1.6225    0.9833    0.0000 C   0  0  0  0  0  0  0  0  0  0  0  0
    1.2784    0.0000    0.0000 C   0  0  0  0  0  0  0  0  0  0  0  0
    0.7867    1.5734    0.0000 S   0  0  0  0  0  0  0  0  0  0  0  0
    0.2950    0.0000    0.0000 C   0  0  0  0  0  0  0  0  0  0  0  0
    0.0000    0.9833    0.0000 C   0  0  0  0  0  0  0  0  0  0  0  0
  1  2  1  0  0  0  0 
  2  3  1  0  0  0  0 
  3  4  2  0  0  0  0 
  5  3  1  0  0  0  0 
  4  6  1  0  0  0  0 
  7  5  1  0  0  0  0 
  6  7  2  0  0  0  0 
M  END
> <Name>
2-ETHYLTHIOPHENE

> <Source>
NIST2DMolFile

> <Tox>
1.049

> <CAS>
872-55-9

$$$$

  CDK

  8  8  0  0  0  0  0  0  0  0999 V2000
    0.0000    1.3992    0.0000 O   0  0  0  0  0  0  0  0  0  0  0  0
    0.7995    0.8495    0.0000 S   0  0  0  0  0  0  0  0  0  0  0  0
    0.0000    0.2499    0.0000 O   0  0  0  0  0  0  0  0  0  0  0  0
    1.3992    1.5991    0.0000 C   0  0  0  0  0  0  0  0  0  0  0  0
    1.3992    0.0000    0.0000 C   0  0  0  0  0  0  0  0  0  0  0  0
    2.3486    1.2992    0.0000 C   0  0  0  0  0  0  0  0  0  0  0  0
    2.3486    0.2998    0.0000 C   0  0  0  0  0  0  0  0  0  0  0  0
    3.1981    1.8989    0.0000 C   0  0  0  0  0  0  0  0  0  0  0  0
  1  2  2  0  0  0  0 
  2  3  2  0  0  0  0 
  4  2  1  0  0  0  0 
  2  5  1  0  0  0  0 
  6  4  1  0  0  0  0 
  5  7  1  0  0  0  0 
  7  6  1  0  0  0  0 
  6  8  1  0  0  0  0 
M  END
> <Name>
3-METHYL SULFOLANE

> <Source>
NIST2DMolFile

> <Tox>
-2.139

> <CAS>
872-93-5

$$$$

  CDK

 10 10  0  0  0  0  0  0  0  0999 V2000
    1.2750    1.9020    0.0026 O   0  0  0  0  0  0  0  0  0  0  0  0
    0.6980    0.8103    0.0007 C   0  0  0  0  0  0  0  0  0  0  0  0
   -0.7196    0.6969   -0.0007 N   0  0  0  0  0  0  0  0  0  0  0  0
    1.3815   -0.4175   -0.0006 N   0  0  0  0  0  0  0  0  0  0  0  0
   -1.4373   -0.5066    0.0001 C   0  0  0  0  0  0  0  0  0  0  0  0
   -1.4900    1.9356   -0.0030 C   0  0  0  0  0  0  0  0  0  0  0  0
    0.7204   -1.6240   -0.0009 C   0  0  0  0  0  0  0  0  0  0  0  0
    2.8408   -0.4508   -0.0003 C   0  0  0  0  0  0  0  0  0  0  0  0
   -2.6615   -0.6182    0.0025 O   0  0  0  0  0  0  0  0  0  0  0  0
   -0.6072   -1.7277   -0.0004 C   0  0  0  0  0  0  0  0  0  0  0  0
  1  2  2  0  0  0  0 
  3  2  1  0  0  0  0 
  4  2  1  0  0  0  0 
  3  5  1  0  0  0  0 
  3  6  1  0  0  0  0 
  4  7  1  0  0  0  0 
  4  8  1  0  0  0  0 
  9  5  2  0  0  0  0 
  5 10  1  0  0  0  0 
  7 10  2  0  0  0  0 
M  END
> <Name>
2,4(1H,3H)-PYRIMIDINEDIONE, 1,3-DIMETHYL-

> <Source>
Chemidplus3DMolFile

> <Tox>
-2.258

> <CAS>
874-14-6

$$$$

  CDK

 10 10  0  0  0  0  0  0  0  0999 V2000
    6.6305    2.3104    2.7995 C   0  0  0  0  0  0  0  0  0  0  0  0
    6.2271    2.5219    1.3547 C   0  0  0  0  0  0  0  0  0  0  0  0
    4.7454    2.4078    1.1806 C   0  0  0  0  0  0  0  0  0  0  0  0
    3.8960    3.5185    1.2859 C   0  0  0  0  0  0  0  0  0  0  0  0
    4.1975    1.1527    0.9074 C   0  0  0  0  0  0  0  0  0  0  0  0
    4.4236    4.8792    1.5730 C   0  0  0  0  0  0  0  0  0  0  0  0
    2.5212    3.3500    1.1139 C   0  0  0  0  0  0  0  0  0  0  0  0
    2.8289    0.9922    0.7386 C   0  0  0  0  0  0  0  0  0  0  0  0
    1.9804    2.0941    0.8418 C   0  0  0  0  0  0  0  0  0  0  0  0
    0.5124    1.9421    0.6724 C   0  0  0  0  0  0  0  0  0  0  0  0
  1  2  1  0  0  0  0 
  2  3  1  0  0  0  0 
  4  3  2  0  0  0  0 
  3  5  1  0  0  0  0 
  4  6  1  0  0  0  0 
  7  4  1  0  0  0  0 
  5  8  2  0  0  0  0 
  9  7  2  0  0  0  0 
  8  9  1  0  0  0  0 
  9 10  1  0  0  0  0 
M  END
> <Name>
1,3-DIMETHYL-4-ETHYLBENZENE

> <Source>
NIST3DMolFile

> <Tox>
-0.069

> <CAS>
874-41-9

$$$$

  CDK

 12 12  0  0  0  0  0  0  0  0999 V2000
    0.0000    0.6096    0.0000 C   0  0  0  0  0  0  0  0  0  0  0  0
    0.0000    1.5747    0.0000 C   0  0  0  0  0  0  0  0  0  0  0  0
    0.8635    0.1016    0.0000 C   0  0  0  0  0  0  0  0  0  0  0  0
    0.8635    2.0827    0.0000 C   0  0  0  0  0  0  0  0  0  0  0  0
    1.7779    0.6096    0.0000 C   0  0  0  0  0  0  0  0  0  0  0  0
    1.7779    1.5747    0.0000 C   0  0  0  0  0  0  0  0  0  0  0  0
    2.5398    0.0000    0.0000 C   0  0  0  0  0  0  0  0  0  0  0  0
    2.5398    2.2350    0.0000 C   0  0  0  0  0  0  0  0  0  0  0  0
    3.5050    0.2032    0.0000 C   0  0  0  0  0  0  0  0  0  0  0  0
    3.5050    1.9811    0.0000 C   0  0  0  0  0  0  0  0  0  0  0  0
    3.9113    1.0667    0.0000 C   0  0  0  0  0  0  0  0  0  0  0  0
    4.9273    1.0667    0.0000 O   0  0  0  0  0  0  0  0  0  0  0  0
  1  2  1  0  0  0  0 
  3  1  1  0  0  0  0 
  2  4  1  0  0  0  0 
  5  3  1  0  0  0  0 
  4  6  1  0  0  0  0 
  7  5  1  0  0  0  0 
  6  8  1  0  0  0  0 
  9  7  1  0  0  0  0 
  8 10  1  0  0  0  0 
 11  9  1  0  0  0  0 
 10 11  1  0  0  0  0 
 11 12  2  0  0  0  0 
M  END
> <Name>
CYCLOUNDECANONE

> <Source>
NIST2DMolFile

> <Tox>
-1.306

> <CAS>
878-13-7

$$$$

  CDK

 16 16  0  0  0  0  0  0  0  0999 V2000
    1.8256   -2.8121    0.0000 C   0  0  0  0  0  0  0  0  0  0  0  0
    1.1525   -3.9647    0.0000 C   0  0  0  0  0  0  0  0  0  0  0  0
    0.4794   -5.1172    0.0000 C   0  0  0  0  0  0  0  0  0  0  0  0
    0.0000   -3.2916    0.0000 C   0  0  0  0  0  0  0  0  0  0  0  0
    2.2958   -4.6469    0.0000 N   0  0  0  0  0  0  0  0  0  0  0  0
    3.4575   -3.9923    0.0000 C   0  0  0  0  0  0  0  0  0  0  0  0
    4.6008   -4.6469    0.0000 N   0  0  0  0  0  0  0  0  0  0  0  0
    3.4575   -2.6738    0.0000 N   0  0  0  0  0  0  0  0  0  0  0  0
    5.7534   -3.9923    0.0000 C   0  0  0  0  0  0  0  0  0  0  0  0
    4.6008   -1.9915    0.0000 C   0  0  0  0  0  0  0  0  0  0  0  0
    6.9151   -4.6469    0.0000 N   0  0  0  0  0  0  0  0  0  0  0  0
    5.7534   -2.6462    0.0000 N   0  0  0  0  0  0  0  0  0  0  0  0
    4.6008   -0.6546    0.0000 S   0  0  0  0  0  0  0  0  0  0  0  0
    8.0676   -3.9923    0.0000 C   0  0  0  0  0  0  0  0  0  0  0  0
    3.4483   -0.0000    0.0000 C   0  0  0  0  0  0  0  0  0  0  0  0
    9.2201   -4.6469    0.0000 C   0  0  0  0  0  0  0  0  0  0  0  0
  1  2  1  0  0  0  0 
  3  2  1  0  0  0  0 
  4  2  1  0  0  0  0 
  2  5  1  0  0  0  0 
  5  6  1  0  0  0  0 
  7  6  2  0  0  0  0 
  8  6  1  0  0  0  0 
  9  7  1  0  0  0  0 
 10  8  2  0  0  0  0 
 11  9  1  0  0  0  0 
 12  9  2  0  0  0  0 
 13 10  1  0  0  0  0 
 12 10  1  0  0  0  0 
 14 11  1  0  0  0  0 
 15 13  1  0  0  0  0 
 16 14  1  0  0  0  0 
M  END
> <Name>
TERBUTRYN

> <Source>
DSSTox2DMolFile

> <Tox>
-5.772

> <CAS>
886-50-0

$$$$

  CDK

  5  4  0  0  0  0  0  0  0  0999 V2000
    0.1216    0.1774    0.0000 C   0  0  0  0  0  0  0  0  0  0  0  0
    0.8596   -0.1915    0.0000 C   0  0  0  0  0  0  0  0  0  0  0  0
   -0.2473   -0.5605    0.0000 C   0  0  0  0  0  0  0  0  0  0  0  0
   -0.6163    0.5464    0.0000 C   0  0  0  0  0  0  0  0  0  0  0  0
    0.4906    0.9153    0.0000 Cl  0  0  0  0  0  0  0  0  0  0  0  0
  1  2  1  0  0  0  0 
  1  3  1  0  0  0  0 
  1  4  1  0  0  0  0 
  1  5  1  0  0  0  0 
M  END
> <Name>
2-CHLORO-2-METHYLPROPANE

> <Source>
Smiles

> <Tox>
2.487

> <CAS>
918-20-7

$$$$

  CDK

  8  7  0  0  0  0  0  0  0  0999 V2000
    2.4707    0.9580    0.0000 O   0  0  0  0  0  0  0  0  0  0  0  0
    1.4623    0.9580    0.0000 C   0  0  0  0  0  0  0  0  0  0  0  0
    2.9749    1.8656    0.0000 C   0  0  0  0  0  0  0  0  0  0  0  0
    0.4538    0.9580    0.0000 C   0  0  0  0  0  0  0  0  0  0  0  0
    1.4623    1.9665    0.0000 C   0  0  0  0  0  0  0  0  0  0  0  0
    1.4623    0.0000    0.0000 C   0  0  0  0  0  0  0  0  0  0  0  0
    3.9834    1.8656    0.0000 C   0  0  0  0  0  0  0  0  0  0  0  0
    0.0000    0.1008    0.0000 C   0  0  0  0  0  0  0  0  0  0  0  0
  1  2  1  0  0  0  0 
  1  3  1  0  0  0  0 
  2  4  1  0  0  0  0 
  2  5  1  0  0  0  0 
  2  6  1  0  0  0  0 
  3  7  1  0  0  0  0 
  4  8  1  0  0  0  0 
M  END
> <Name>
ETHYL(TERT-AMYL) ETHER

> <Source>
NIST2DMolFile

> <Tox>
1.699

> <CAS>
919-94-8

$$$$

  CDK

 10  9  0  0  0  0  0  0  0  0999 V2000
    1.9957   -1.1523    0.0000 C   0  0  0  0  0  0  0  0  0  0  0  0
    0.8435   -0.4886    0.0000 F   0  0  0  0  0  0  0  0  0  0  0  0
    2.6594   -0.0000    0.0000 F   0  0  0  0  0  0  0  0  0  0  0  0
    3.1480   -1.8160    0.0000 F   0  0  0  0  0  0  0  0  0  0  0  0
    1.3320   -2.3045    0.0000 C   0  0  0  0  0  0  0  0  0  0  0  0
    0.0000   -2.3045    0.0000 O   0  0  0  0  0  0  0  0  0  0  0  0
    1.9957   -3.4568    0.0000 C   0  0  0  0  0  0  0  0  0  0  0  0
    3.1480   -2.7931    0.0000 F   0  0  0  0  0  0  0  0  0  0  0  0
    2.6594   -4.6091    0.0000 F   0  0  0  0  0  0  0  0  0  0  0  0
    0.8435   -4.1205    0.0000 F   0  0  0  0  0  0  0  0  0  0  0  0
  1  2  1  0  0  0  0 
  1  3  1  0  0  0  0 
  1  4  1  0  0  0  0 
  1  5  1  0  0  0  0 
  5  6  1  0  0  0  0 
  5  7  1  0  0  0  0 
  7  8  1  0  0  0  0 
  7  9  1  0  0  0  0 
  7 10  1  0  0  0  0 
M  END
> <Name>
1,1,1,3,3,3-HEXAFLUOROPROPAN-2-OL

> <Source>
DSSTox2DMolFile

> <Tox>
2.201

> <CAS>
920-66-1

$$$$

  CDK

  9  8  0  0  0  0  0  0  0  0999 V2000
    2.0510    1.6717    4.3704 C   0  0  0  0  0  0  0  0  0  0  0  0
    3.0741    1.1136    3.3576 C   0  0  0  0  0  0  0  0  0  0  0  0
    2.5074    2.9777    5.0225 C   0  0  0  0  0  0  0  0  0  0  0  0
    0.6792    1.8373    3.7350 C   0  0  0  0  0  0  0  0  0  0  0  0
    3.2373    1.9750    2.0882 C   0  0  0  0  0  0  0  0  0  0  0  0
    4.3920    0.8245    4.0590 C   0  0  0  0  0  0  0  0  0  0  0  0
    1.6046    3.3825    6.1651 C   0  0  0  0  0  0  0  0  0  0  0  0
    4.1696    3.1642    2.2454 C   0  0  0  0  0  0  0  0  0  0  0  0
    3.7014    1.1147    0.9207 C   0  0  0  0  0  0  0  0  0  0  0  0
  1  2  1  0  0  0  0 
  1  3  1  0  0  0  0 
  1  4  1  0  0  0  0 
  2  5  1  0  0  0  0 
  2  6  1  0  0  0  0 
  3  7  1  0  0  0  0 
  5  8  1  0  0  0  0 
  5  9  1  0  0  0  0 
M  END
> <Name>
2,3,4-TRIMETHYLHEXANE

> <Source>
NIST3DMolFile

> <Tox>
0.955

> <CAS>
921-47-1

$$$$

  CDK

 11 10  0  0  0  0  0  0  0  0999 V2000
    5.7570   -0.6635    0.0000 O   0  0  0  0  0  0  0  0  0  0  0  0
    4.6098   -0.0000    0.0000 N   0  0  0  0  0  0  0  0  0  0  0  0
    3.4556   -0.6635    0.0000 N   0  0  0  0  0  0  0  0  0  0  0  0
    3.4556   -1.9973    0.0000 C   0  0  0  0  0  0  0  0  0  0  0  0
    2.3014   -0.0000    0.0000 C   0  0  0  0  0  0  0  0  0  0  0  0
    4.6098   -2.6608    0.0000 C   0  0  0  0  0  0  0  0  0  0  0  0
    1.1542   -0.6635    0.0000 C   0  0  0  0  0  0  0  0  0  0  0  0
    5.7570   -1.9973    0.0000 C   0  0  0  0  0  0  0  0  0  0  0  0
    1.1542   -1.9973    0.0000 C   0  0  0  0  0  0  0  0  0  0  0  0
    6.9112   -2.6608    0.0000 C   0  0  0  0  0  0  0  0  0  0  0  0
    0.0000   -2.6608    0.0000 C   0  0  0  0  0  0  0  0  0  0  0  0
  1  2  2  0  0  0  0 
  2  3  1  0  0  0  0 
  3  4  1  0  0  0  0 
  3  5  1  0  0  0  0 
  4  6  1  0  0  0  0 
  5  7  1  0  0  0  0 
  6  8  1  0  0  0  0 
  7  9  1  0  0  0  0 
  8 10  1  0  0  0  0 
  9 11  1  0  0  0  0 
M  END
> <Name>
N-NITROSODIBUTYLAMINE

> <Source>
DSSTox2DMolFile

> <Tox>
-1.329

> <CAS>
924-16-3

$$$$

  CDK

  8  7  0  0  0  0  0  0  0  0999 V2000
    0.0000    0.0000    0.0000 C   0  0  0  0  0  0  0  0  0  0  0  0
    0.4800    0.6000    1.3200 C   0  0  0  0  0  0  0  0  0  0  0  0
    1.2200    1.9400    1.1400 C   0  0  0  0  0  0  0  0  0  0  0  0
    2.6200    1.7000    1.0800 O   0  0  0  0  0  0  0  0  0  0  0  0
    3.2000    1.7600    2.2600 C   0  0  0  0  0  0  0  0  0  0  0  0
    2.5800    1.7600    3.3200 O   0  0  0  0  0  0  0  0  0  0  0  0
    4.6600    1.7800    2.2600 C   0  0  0  0  0  0  0  0  0  0  0  0
    5.3400    1.8400    3.4200 C   0  0  0  0  0  0  0  0  0  0  0  0
  1  2  1  0  0  0  0 
  2  3  1  0  0  0  0 
  3  4  1  0  0  0  0 
  4  5  1  0  0  0  0 
  5  6  2  0  0  0  0 
  5  7  1  0  0  0  0 
  7  8  2  0  0  0  0 
M  END
> <Name>
2-PROPENOIC ACID, PROPYL ESTER

> <Source>
NIH3DMolFile

> <Tox>
1.161

> <CAS>
925-60-0

$$$$

  CDK

  8  7  0  0  0  0  0  0  0  0999 V2000
    1.7491    1.4992    0.0000 O   0  0  0  0  0  0  0  0  0  0  0  0
    2.5986    0.9995    0.0000 C   0  0  0  0  0  0  0  0  0  0  0  0
    0.8495    0.9995    0.0000 N   0  0  0  0  0  0  0  0  0  0  0  0
    3.4482    1.4992    0.0000 C   0  0  0  0  0  0  0  0  0  0  0  0
    0.8495    0.0000    0.0000 O   0  0  0  0  0  0  0  0  0  0  0  0
    0.0000    1.4992    0.0000 O   0  0  0  0  0  0  0  0  0  0  0  0
    4.3477    0.9995    0.0000 C   0  0  0  0  0  0  0  0  0  0  0  0
    5.1972    1.4992    0.0000 C   0  0  0  0  0  0  0  0  0  0  0  0
  1  2  1  0  0  0  0 
  1  3  1  0  0  0  0 
  2  4  1  0  0  0  0 
  3  5  2  0  0  0  0 
  3  6  2  0  0  0  0 
  4  7  1  0  0  0  0 
  7  8  1  0  0  0  0 
M  END
> <Name>
BUTYL NITRATE

> <Source>
NIST2DMolFile

> <Tox>
0.919

> <CAS>
928-45-0

$$$$

  CDK

  7  6  0  0  0  0  0  0  0  0999 V2000
    1.1578   -0.0000    0.0000 C   0  0  0  0  0  0  0  0  0  0  0  0
    2.3086   -0.6586    0.0000 C   0  0  0  0  0  0  0  0  0  0  0  0
    0.0000   -0.6586    0.0000 O   0  0  0  0  0  0  0  0  0  0  0  0
    3.4664   -0.0000    0.0000 O   0  0  0  0  0  0  0  0  0  0  0  0
    4.6242   -0.6586    0.0000 C   0  0  0  0  0  0  0  0  0  0  0  0
    5.7751   -0.0000    0.0000 C   0  0  0  0  0  0  0  0  0  0  0  0
    6.9328   -0.6586    0.0000 N   0  0  0  0  0  0  0  0  0  0  0  0
  1  2  1  0  0  0  0 
  1  3  1  0  0  0  0 
  2  4  1  0  0  0  0 
  4  5  1  0  0  0  0 
  5  6  1  0  0  0  0 
  6  7  1  0  0  0  0 
M  END
> <Name>
2-(2-Aminoethoxy)ethanol

> <Source>
DSSTox2DMolFile

> <Tox>
-2.812

> <CAS>
929-06-6

$$$$

  CDK

  8  8  0  0  0  0  0  0  0  0999 V2000
    1.9335    0.0002    0.0003 N   0  0  0  0  0  0  0  0  0  0  0  0
    0.5539    0.0000    0.0008 C   0  0  0  0  0  0  0  0  0  0  0  0
    3.1125    0.0000   -0.0009 C   0  0  0  0  0  0  0  0  0  0  0  0
   -0.1437    1.2080    0.0004 C   0  0  0  0  0  0  0  0  0  0  0  0
   -0.1435   -1.2081    0.0005 C   0  0  0  0  0  0  0  0  0  0  0  0
   -1.5385    1.2080   -0.0002 C   0  0  0  0  0  0  0  0  0  0  0  0
   -1.5384   -1.2080   -0.0003 C   0  0  0  0  0  0  0  0  0  0  0  0
   -2.2358    0.0000   -0.0006 C   0  0  0  0  0  0  0  0  0  0  0  0
  1  2  1  0  0  0  0 
  1  3  3  0  0  0  0 
  2  4  2  0  0  0  0 
  2  5  1  0  0  0  0 
  4  6  1  0  0  0  0 
  5  7  2  0  0  0  0 
  6  8  2  0  0  0  0 
  7  8  1  0  0  0  0 
M  CHG  1   1   1
M  CHG  1   3  -1
M  END
> <Name>
ISOCYANOBENZENE

> <Source>
Chemidplus3DMolFile

> <Tox>
0.380

> <CAS>
931-54-4

$$$$

  CDK

 10 10  0  0  0  0  0  0  0  0999 V2000
    1.6426    0.7140    3.8762 C   0  0  0  0  0  0  0  0  0  0  0  0
    0.8568    1.8285    4.5345 C   0  0  0  0  0  0  0  0  0  0  0  0
    2.8002    1.2550    3.0951 C   0  0  0  0  0  0  0  0  0  0  0  0
    4.0895    1.3366    3.6382 C   0  0  0  0  0  0  0  0  0  0  0  0
    2.5673    1.6930    1.7881 C   0  0  0  0  0  0  0  0  0  0  0  0
    4.3727    0.8778    5.0247 C   0  0  0  0  0  0  0  0  0  0  0  0
    5.1327    1.8686    2.8601 C   0  0  0  0  0  0  0  0  0  0  0  0
    3.6011    2.2116    1.0232 C   0  0  0  0  0  0  0  0  0  0  0  0
    6.5129    1.9786    3.4033 C   0  0  0  0  0  0  0  0  0  0  0  0
    4.8803    2.3020    1.5587 C   0  0  0  0  0  0  0  0  0  0  0  0
  1  2  1  0  0  0  0 
  1  3  1  0  0  0  0 
  4  3  2  0  0  0  0 
  3  5  1  0  0  0  0 
  4  6  1  0  0  0  0 
  7  4  1  0  0  0  0 
  5  8  2  0  0  0  0 
  7  9  1  0  0  0  0 
 10  7  2  0  0  0  0 
  8 10  1  0  0  0  0 
M  END
> <Name>
1,2-DIMETHYL-3-ETHYLBENZENE

> <Source>
NIST3DMolFile

> <Tox>
-0.206

> <CAS>
933-98-2

$$$$

  CDK

 10 10  0  0  0  0  0  0  0  0999 V2000
    1.0644    4.1872    1.9262 C   0  0  0  0  0  0  0  0  0  0  0  0
    1.7906    4.0284    0.6066 C   0  0  0  0  0  0  0  0  0  0  0  0
    3.2393    3.7256    0.8198 C   0  0  0  0  0  0  0  0  0  0  0  0
    3.6601    2.4054    0.9871 C   0  0  0  0  0  0  0  0  0  0  0  0
    4.1722    4.7597    0.8585 C   0  0  0  0  0  0  0  0  0  0  0  0
    5.0086    2.1197    1.1914 C   0  0  0  0  0  0  0  0  0  0  0  0
    5.5248    4.4791    1.0607 C   0  0  0  0  0  0  0  0  0  0  0  0
    5.4678    0.7179    1.3706 C   0  0  0  0  0  0  0  0  0  0  0  0
    5.9395    3.1595    1.2276 C   0  0  0  0  0  0  0  0  0  0  0  0
    6.5138    5.5879    1.0850 C   0  0  0  0  0  0  0  0  0  0  0  0
  1  2  1  0  0  0  0 
  2  3  1  0  0  0  0 
  4  3  2  0  0  0  0 
  3  5  1  0  0  0  0 
  6  4  1  0  0  0  0 
  5  7  2  0  0  0  0 
  6  8  1  0  0  0  0 
  9  6  2  0  0  0  0 
  7  9  1  0  0  0  0 
  7 10  1  0  0  0  0 
M  END
> <Name>
1,3-DIMETHYL-5-ETHYLBENZENE

> <Source>
NIST3DMolFile

> <Tox>
0.013

> <CAS>
934-74-7

$$$$

  CDK

 10 10  0  0  0  0  0  0  0  0999 V2000
    5.9243    3.7671    1.0724 C   0  0  0  0  0  0  0  0  0  0  0  0
    6.4672    4.9587    1.8335 C   0  0  0  0  0  0  0  0  0  0  0  0
    4.6117    3.3203    1.6308 C   0  0  0  0  0  0  0  0  0  0  0  0
    4.5678    2.3511    2.6314 C   0  0  0  0  0  0  0  0  0  0  0  0
    3.4211    3.8727    1.1582 C   0  0  0  0  0  0  0  0  0  0  0  0
    3.3489    1.9267    3.1621 C   0  0  0  0  0  0  0  0  0  0  0  0
    2.2051    3.4550    1.6820 C   0  0  0  0  0  0  0  0  0  0  0  0
    3.3367    0.8898    4.2265 C   0  0  0  0  0  0  0  0  0  0  0  0
    2.1541    2.4829    2.6825 C   0  0  0  0  0  0  0  0  0  0  0  0
    0.8385    2.0539    3.2233 C   0  0  0  0  0  0  0  0  0  0  0  0
  1  2  1  0  0  0  0 
  1  3  1  0  0  0  0 
  3  4  2  0  0  0  0 
  5  3  1  0  0  0  0 
  4  6  1  0  0  0  0 
  7  5  2  0  0  0  0 
  6  8  1  0  0  0  0 
  6  9  2  0  0  0  0 
  9  7  1  0  0  0  0 
  9 10  1  0  0  0  0 
M  END
> <Name>
4-ETHYL-1,2-DIMETHYLBENZENE

> <Source>
NIST3DMolFile

> <Tox>
-0.126

> <CAS>
934-80-5

$$$$

  CDK

 11 11  0  0  0  0  0  0  0  0999 V2000
    1.9945    0.0000    0.0000 C   0  0  0  0  0  0  0  0  0  0  0  0
    1.4959    0.8975    0.0000 C   0  0  0  0  0  0  0  0  0  0  0  0
    2.9918    0.0000    0.0000 C   0  0  0  0  0  0  0  0  0  0  0  0
    1.9945    1.7452    0.0000 C   0  0  0  0  0  0  0  0  0  0  0  0
    0.4986    0.8477    0.0000 C   0  0  0  0  0  0  0  0  0  0  0  0
    3.4405    0.8975    0.0000 C   0  0  0  0  0  0  0  0  0  0  0  0
    2.9918    1.7452    0.0000 C   0  0  0  0  0  0  0  0  0  0  0  0
    0.0000    1.7452    0.0000 C   0  0  0  0  0  0  0  0  0  0  0  0
    4.4378    0.8975    0.0000 C   0  0  0  0  0  0  0  0  0  0  0  0
    4.9364    0.0000    0.0000 C   0  0  0  0  0  0  0  0  0  0  0  0
    4.9364    1.7452    0.0000 O   0  0  0  0  0  0  0  0  0  0  0  0
  1  2  2  0  0  0  0 
  3  1  1  0  0  0  0 
  2  4  1  0  0  0  0 
  2  5  1  0  0  0  0 
  6  3  2  0  0  0  0 
  4  7  2  0  0  0  0 
  5  8  1  0  0  0  0 
  7  6  1  0  0  0  0 
  6  9  1  0  0  0  0 
  9 10  1  0  0  0  0 
  9 11  2  0  0  0  0 
M  END
> <Name>
4-ETHYLACETOPHENONE

> <Source>
NIST2DMolFile

> <Tox>
-0.039

> <CAS>
937-30-4

$$$$

  CDK

 13 14  0  0  0  0  0  0  0  0999 V2000
   -1.0303   -0.2675   -0.0004 C   0  0  0  0  0  0  0  0  0  0  0  0
   -1.2958   -1.6197   -0.0007 C   0  0  0  0  0  0  0  0  0  0  0  0
    0.3344    0.1678   -0.0001 C   0  0  0  0  0  0  0  0  0  0  0  0
   -2.1602    0.7136   -0.0002 C   0  0  0  0  0  0  0  0  0  0  0  0
   -0.2588   -2.5756   -0.0008 C   0  0  0  0  0  0  0  0  0  0  0  0
    1.3687   -0.7939    0.0001 C   0  0  0  0  0  0  0  0  0  0  0  0
    0.6924    1.5450    0.0001 C   0  0  0  0  0  0  0  0  0  0  0  0
   -1.9790    1.9214   -0.0027 O   0  0  0  0  0  0  0  0  0  0  0  0
   -3.5710    0.1778    0.0032 C   0  0  0  0  0  0  0  0  0  0  0  0
    1.0497   -2.1764   -0.0003 C   0  0  0  0  0  0  0  0  0  0  0  0
    2.7262   -0.3697    0.0006 C   0  0  0  0  0  0  0  0  0  0  0  0
    2.0044    1.9295    0.0005 C   0  0  0  0  0  0  0  0  0  0  0  0
    3.0358    0.9622    0.0008 C   0  0  0  0  0  0  0  0  0  0  0  0
  1  2  1  0  0  0  0 
  1  3  2  0  0  0  0 
  1  4  1  0  0  0  0 
  2  5  2  0  0  0  0 
  6  3  1  0  0  0  0 
  7  3  1  0  0  0  0 
  4  8  2  0  0  0  0 
  4  9  1  0  0  0  0 
  5 10  1  0  0  0  0 
 10  6  2  0  0  0  0 
  6 11  1  0  0  0  0 
 12  7  2  0  0  0  0 
 11 13  2  0  0  0  0 
 13 12  1  0  0  0  0 
M  END
> <Name>
ALPHA-NAPHTHYL METHYL KETONE

> <Source>
DougDB3DMolFile

> <Tox>
-3.407

> <CAS>
941-98-0

$$$$

  CDK

 14 14  0  0  0  0  0  0  0  0999 V2000
    2.2580   -2.3071    0.0000 P   0  0  0  0  0  0  0  0  0  0  0  0
    3.5693   -2.6507    0.0000 S   0  0  0  0  0  0  0  0  0  0  0  0
    2.9522   -3.4431    0.0000 O   0  0  0  0  0  0  0  0  0  0  0  0
    1.1500   -2.9522    0.0000 C   0  0  0  0  0  0  0  0  0  0  0  0
    2.2580   -0.9817    0.0000 S   0  0  0  0  0  0  0  0  0  0  0  0
    4.6772   -1.9915    0.0000 C   0  0  0  0  0  0  0  0  0  0  0  0
    4.2775   -3.4431    0.0000 C   0  0  0  0  0  0  0  0  0  0  0  0
    0.0000   -2.3071    0.0000 C   0  0  0  0  0  0  0  0  0  0  0  0
    5.8623   -2.6507    0.0000 C   0  0  0  0  0  0  0  0  0  0  0  0
    4.6772   -0.6662    0.0000 C   0  0  0  0  0  0  0  0  0  0  0  0
    4.9437   -4.6422    0.0000 C   0  0  0  0  0  0  0  0  0  0  0  0
    7.0123   -1.9915    0.0000 C   0  0  0  0  0  0  0  0  0  0  0  0
    5.8623   -0.0000    0.0000 C   0  0  0  0  0  0  0  0  0  0  0  0
    7.0123   -0.6662    0.0000 C   0  0  0  0  0  0  0  0  0  0  0  0
  1  2  1  0  0  0  0 
  1  3  1  0  0  0  0 
  1  4  1  0  0  0  0 
  1  5  2  0  0  0  0 
  2  6  1  0  0  0  0 
  3  7  1  0  0  0  0 
  4  8  1  0  0  0  0 
  6  9  2  0  0  0  0 
  6 10  1  0  0  0  0 
  7 11  1  0  0  0  0 
  9 12  1  0  0  0  0 
 10 13  2  0  0  0  0 
 12 14  2  0  0  0  0 
 13 14  1  0  0  0  0 
M  END
> <Name>
FONOPHOS

> <Source>
DSSTox2DMolFile

> <Tox>
-3.471

> <CAS>
944-22-9

$$$$

  CDK

 14 15  0  0  0  0  0  0  0  0999 V2000
    1.9878    1.7393    0.0000 C   0  0  0  0  0  0  0  0  0  0  0  0
    1.4908    0.8448    0.0000 C   0  0  0  0  0  0  0  0  0  0  0  0
    1.4908    2.5841    0.0000 C   0  0  0  0  0  0  0  0  0  0  0  0
    2.9816    1.7393    0.0000 O   0  0  0  0  0  0  0  0  0  0  0  0
    0.4969    0.8448    0.0000 C   0  0  0  0  0  0  0  0  0  0  0  0
    0.4969    2.5841    0.0000 C   0  0  0  0  0  0  0  0  0  0  0  0
    3.4786    0.8448    0.0000 C   0  0  0  0  0  0  0  0  0  0  0  0
    0.0000    1.7393    0.0000 C   0  0  0  0  0  0  0  0  0  0  0  0
    4.4724    0.8448    0.0000 C   0  0  0  0  0  0  0  0  0  0  0  0
    4.9694    0.0000    0.0000 C   0  0  0  0  0  0  0  0  0  0  0  0
    4.9694    1.7393    0.0000 C   0  0  0  0  0  0  0  0  0  0  0  0
    5.9633    0.0000    0.0000 C   0  0  0  0  0  0  0  0  0  0  0  0
    5.9633    1.7393    0.0000 C   0  0  0  0  0  0  0  0  0  0  0  0
    6.4602    0.8448    0.0000 C   0  0  0  0  0  0  0  0  0  0  0  0
  1  2  2  0  0  0  0 
  3  1  1  0  0  0  0 
  1  4  1  0  0  0  0 
  2  5  1  0  0  0  0 
  6  3  2  0  0  0  0 
  4  7  1  0  0  0  0 
  5  8  2  0  0  0  0 
  8  6  1  0  0  0  0 
  7  9  1  0  0  0  0 
 10  9  2  0  0  0  0 
  9 11  1  0  0  0  0 
 12 10  1  0  0  0  0 
 11 13  2  0  0  0  0 
 14 12  2  0  0  0  0 
 13 14  1  0  0  0  0 
M  END
> <Name>
BENZYL PHENYL ETHER

> <Source>
NIST2DMolFile

> <Tox>
-2.201

> <CAS>
946-80-5

$$$$

  CDK

 16 16  0  0  0  0  0  0  0  0999 V2000
    7.6582   -3.9305    0.0000 S   0  0  0  0  0  0  0  0  0  0  0  0
    7.6582   -2.5978    0.0000 P   0  0  0  0  0  0  0  0  0  0  0  0
    6.3351   -2.5978    0.0000 S   0  0  0  0  0  0  0  0  0  0  0  0
    7.6582   -1.2748    0.0000 O   0  0  0  0  0  0  0  0  0  0  0  0
    8.9909   -2.5978    0.0000 O   0  0  0  0  0  0  0  0  0  0  0  0
    5.6688   -1.4486    0.0000 C   0  0  0  0  0  0  0  0  0  0  0  0
    8.8170   -0.6084    0.0000 C   0  0  0  0  0  0  0  0  0  0  0  0
    9.6572   -3.7567    0.0000 C   0  0  0  0  0  0  0  0  0  0  0  0
    4.3361   -1.4486    0.0000 N   0  0  0  0  0  0  0  0  0  0  0  0
    3.5539   -2.5205    0.0000 C   0  0  0  0  0  0  0  0  0  0  0  0
    3.5539   -0.3766    0.0000 N   0  0  0  0  0  0  0  0  0  0  0  0
    3.9691   -3.7856    0.0000 O   0  0  0  0  0  0  0  0  0  0  0  0
    2.2888   -2.1149    0.0000 S   0  0  0  0  0  0  0  0  0  0  0  0
    2.2888   -0.7822    0.0000 C   0  0  0  0  0  0  0  0  0  0  0  0
    1.2168   -0.0000    0.0000 O   0  0  0  0  0  0  0  0  0  0  0  0
    0.0000   -0.5408    0.0000 C   0  0  0  0  0  0  0  0  0  0  0  0
  1  2  2  0  0  0  0 
  2  3  1  0  0  0  0 
  2  4  1  0  0  0  0 
  2  5  1  0  0  0  0 
  3  6  1  0  0  0  0 
  4  7  1  0  0  0  0 
  5  8  1  0  0  0  0 
  6  9  1  0  0  0  0 
  9 10  1  0  0  0  0 
  9 11  1  0  0  0  0 
 10 12  2  0  0  0  0 
 10 13  1  0  0  0  0 
 14 11  2  0  0  0  0 
 13 14  1  0  0  0  0 
 14 15  1  0  0  0  0 
 15 16  1  0  0  0  0 
M  END
> <Name>
METHIDATHION

> <Source>
DSSTox2DMolFile

> <Tox>
-5.472

> <CAS>
950-37-8

$$$$

  CDK

 18 19  0  0  0  0  0  0  0  0999 V2000
    3.4481   -1.9999    0.0000 C   0  0  0  0  0  0  0  0  0  0  0  0
    3.4481   -3.3447    0.0000 C   0  0  0  0  0  0  0  0  0  0  0  0
    2.2964   -1.3310    0.0000 N   0  0  0  0  0  0  0  0  0  0  0  0
    4.5998   -1.3172    0.0000 O   0  0  0  0  0  0  0  0  0  0  0  0
    4.5998   -4.0067    0.0000 C   0  0  0  0  0  0  0  0  0  0  0  0
    2.2964   -4.0067    0.0000 C   0  0  0  0  0  0  0  0  0  0  0  0
    2.2964   -0.0000    0.0000 C   0  0  0  0  0  0  0  0  0  0  0  0
    1.1517   -1.9999    0.0000 C   0  0  0  0  0  0  0  0  0  0  0  0
    4.5998   -5.3377    0.0000 C   0  0  0  0  0  0  0  0  0  0  0  0
    5.7445   -3.3447    0.0000 C   0  0  0  0  0  0  0  0  0  0  0  0
    2.2964   -5.3377    0.0000 C   0  0  0  0  0  0  0  0  0  0  0  0
    1.1517   -3.3447    0.0000 C   0  0  0  0  0  0  0  0  0  0  0  0
    5.7445   -6.0066    0.0000 C   0  0  0  0  0  0  0  0  0  0  0  0
    6.8962   -4.0067    0.0000 C   0  0  0  0  0  0  0  0  0  0  0  0
    1.1517   -6.0066    0.0000 C   0  0  0  0  0  0  0  0  0  0  0  0
    0.0000   -4.0067    0.0000 C   0  0  0  0  0  0  0  0  0  0  0  0
    6.8962   -5.3377    0.0000 C   0  0  0  0  0  0  0  0  0  0  0  0
    0.0000   -5.3377    0.0000 C   0  0  0  0  0  0  0  0  0  0  0  0
  1  2  1  0  0  0  0 
  1  3  1  0  0  0  0 
  1  4  2  0  0  0  0 
  2  5  1  0  0  0  0 
  2  6  1  0  0  0  0 
  3  7  1  0  0  0  0 
  3  8  1  0  0  0  0 
  5  9  1  0  0  0  0 
  5 10  2  0  0  0  0 
  6 11  2  0  0  0  0 
  6 12  1  0  0  0  0 
  9 13  2  0  0  0  0 
 10 14  1  0  0  0  0 
 11 15  1  0  0  0  0 
 12 16  2  0  0  0  0 
 13 17  1  0  0  0  0 
 14 17  2  0  0  0  0 
 15 18  2  0  0  0  0 
 16 18  1  0  0  0  0 
M  END
> <Name>
DIPHENAMID

> <Source>
DSSTox2DMolFile

> <Tox>
-7.523

> <CAS>
957-51-7

$$$$

  CDK

 19 21  0  0  0  0  0  0  0  0999 V2000
    3.2962    3.7184    0.0000 C   0  0  0  0  0  0  0  0  0  0  0  0
    2.5202    3.2904    0.0000 C   0  0  0  0  0  0  0  0  0  0  0  0
    2.8359    2.8034    0.0000 C   0  0  0  0  0  0  0  0  0  0  0  0
    4.0308    4.4817    0.0000 Cl  0  0  0  0  0  0  0  0  0  0  0  0
    1.9905    2.5359    0.0000 C   0  0  0  0  0  0  0  0  0  0  0  0
    1.9284    3.9498    0.0000 Cl  0  0  0  0  0  0  0  0  0  0  0  0
    3.2693    1.9474    0.0000 C   0  0  0  0  0  0  0  0  0  0  0  0
    3.9275    3.4402    0.0000 Cl  0  0  0  0  0  0  0  0  0  0  0  0
    1.0274    2.7231    0.0000 C   0  0  0  0  0  0  0  0  0  0  0  0
    2.5371    1.5973    0.0000 C   0  0  0  0  0  0  0  0  0  0  0  0
    1.1985    1.5834    0.0000 Cl  0  0  0  0  0  0  0  0  0  0  0  0
    4.0037    1.5888    0.0000 C   0  0  0  0  0  0  0  0  0  0  0  0
    0.0000    2.4503    0.0000 Cl  0  0  0  0  0  0  0  0  0  0  0  0
    0.2729    3.4776    0.0000 Cl  0  0  0  0  0  0  0  0  0  0  0  0
    3.0726    0.9675    0.0000 C   0  0  0  0  0  0  0  0  0  0  0  0
    3.6828    1.0001    0.0000 O   0  0  0  0  0  0  0  0  0  0  0  0
    2.8514    0.1601    0.0000 O   0  0  0  0  0  0  0  0  0  0  0  0
    3.9064    0.1631    0.0000 S   0  0  0  0  0  0  0  0  0  0  0  0
    4.5443    0.0000    0.0000 O   0  0  0  0  0  0  0  0  0  0  0  0
  1  2  2  0  0  0  0 
  3  1  1  0  0  0  0 
  1  4  1  0  0  0  0 
  2  5  1  0  0  0  0 
  2  6  1  0  0  0  0 
  7  3  1  0  0  0  0 
  3  8  1  6  0  0  0 
  3  9  1  0  0  0  0 
  5  9  1  0  0  0  0 
  5 10  1  0  0  0  0 
  5 11  1  6  0  0  0 
 10  7  1  0  0  0  0 
 12  7  1  0  0  0  0 
  9 13  1  0  0  0  0 
  9 14  1  0  0  0  0 
 10 15  1  0  0  0  0 
 16 12  1  0  0  0  0 
 15 17  1  0  0  0  0 
 18 16  1  0  0  0  0 
 17 18  1  0  0  0  0 
 18 19  2  0  0  0  0 
M  END
> <Name>
A-ENDOSULFAN

> <Source>
NIST2DMolFile

> <Tox>
-5.523

> <CAS>
959-98-8

$$$$

  CDK

 19 20  0  0  0  0  0  0  0  0999 V2000
    2.5960    2.9954    0.0000 N   0  0  0  0  0  0  0  0  0  0  0  0
    3.4447    2.4961    0.0000 C   0  0  0  0  0  0  0  0  0  0  0  0
    1.6974    2.4961    0.0000 C   0  0  0  0  0  0  0  0  0  0  0  0
    4.2933    2.9954    0.0000 C   0  0  0  0  0  0  0  0  0  0  0  0
    3.4447    1.4977    0.0000 C   0  0  0  0  0  0  0  0  0  0  0  0
    0.8487    2.9954    0.0000 C   0  0  0  0  0  0  0  0  0  0  0  0
    1.6974    1.4977    0.0000 C   0  0  0  0  0  0  0  0  0  0  0  0
    4.2933    4.0437    0.0000 N   0  0  0  0  0  0  0  0  0  0  0  0
    5.1919    2.4961    0.0000 C   0  0  0  0  0  0  0  0  0  0  0  0
    4.2933    0.9985    0.0000 C   0  0  0  0  0  0  0  0  0  0  0  0
    0.0000    2.4961    0.0000 C   0  0  0  0  0  0  0  0  0  0  0  0
    0.8487    0.9985    0.0000 C   0  0  0  0  0  0  0  0  0  0  0  0
    3.4447    4.4930    0.0000 O   0  0  0  0  0  0  0  0  0  0  0  0
    5.1919    4.5430    0.0000 O   0  0  0  0  0  0  0  0  0  0  0  0
    5.1919    1.4977    0.0000 C   0  0  0  0  0  0  0  0  0  0  0  0
    0.0000    1.4977    0.0000 C   0  0  0  0  0  0  0  0  0  0  0  0
    6.0406    1.0484    0.0000 N   0  0  0  0  0  0  0  0  0  0  0  0
    6.8893    1.5476    0.0000 O   0  0  0  0  0  0  0  0  0  0  0  0
    6.0406    0.0000    0.0000 O   0  0  0  0  0  0  0  0  0  0  0  0
  1  2  1  0  0  0  0 
  1  3  1  0  0  0  0 
  2  4  2  0  0  0  0 
  5  2  1  0  0  0  0 
  6  3  2  0  0  0  0 
  3  7  1  0  0  0  0 
  4  8  1  0  0  0  0 
  4  9  1  0  0  0  0 
 10  5  2  0  0  0  0 
 11  6  1  0  0  0  0 
  7 12  2  0  0  0  0 
  8 13  2  0  0  0  0 
  8 14  2  0  0  0  0 
  9 15  2  0  0  0  0 
 15 10  1  0  0  0  0 
 16 11  2  0  0  0  0 
 12 16  1  0  0  0  0 
 15 17  1  0  0  0  0 
 17 18  2  0  0  0  0 
 17 19  2  0  0  0  0 
M  END
> <Name>
2,4-DINITRO-N-PHENYLBENZENAMINE

> <Source>
NIST2DMolFile

> <Tox>
-8.523

> <CAS>
961-68-2

$$$$

  CDK

  7  6  0  0  0  0  0  0  0  0999 V2000
    4.2973   -2.3034    0.0000 C   0  0  0  0  0  0  0  0  0  0  0  0
    2.9694   -2.3034    0.0000 O   0  0  0  0  0  0  0  0  0  0  0  0
    2.3034   -1.1517    0.0000 C   0  0  0  0  0  0  0  0  0  0  0  0
    3.4550   -0.4856    0.0000 C   0  0  0  0  0  0  0  0  0  0  0  0
    1.6373   -0.0000    0.0000 C   0  0  0  0  0  0  0  0  0  0  0  0
    1.1517   -1.8178    0.0000 C   0  0  0  0  0  0  0  0  0  0  0  0
    0.0000   -1.1517    0.0000 C   0  0  0  0  0  0  0  0  0  0  0  0
  1  2  1  0  0  0  0 
  2  3  1  0  0  0  0 
  3  4  1  0  0  0  0 
  3  5  1  0  0  0  0 
  3  6  1  0  0  0  0 
  6  7  1  0  0  0  0 
M  END
> <Name>
METHYL-T-AMYL ETHER

> <Source>
DSSTox2DMolFile

> <Tox>
1.876

> <CAS>
994-05-8

$$$$

  CDK

  8  7  0  0  0  0  0  0  0  0999 V2000
    1.4784    1.0196    0.0000 Si  0  0  0  0  0  0  0  0  0  0  0  0
    2.4979    1.0196    0.0000 C   0  0  0  0  0  0  0  0  0  0  0  0
    1.4784    0.0000    0.0000 Cl  0  0  0  0  0  0  0  0  0  0  0  0
    1.4784    2.0391    0.0000 C   0  0  0  0  0  0  0  0  0  0  0  0
    0.5098    1.0196    0.0000 C   0  0  0  0  0  0  0  0  0  0  0  0
    3.0077    0.1529    0.0000 C   0  0  0  0  0  0  0  0  0  0  0  0
    0.6627    2.5489    0.0000 C   0  0  0  0  0  0  0  0  0  0  0  0
    0.0000    0.1529    0.0000 C   0  0  0  0  0  0  0  0  0  0  0  0
  1  2  1  0  0  0  0 
  1  3  1  0  0  0  0 
  1  4  1  0  0  0  0 
  1  5  1  0  0  0  0 
  2  6  1  0  0  0  0 
  4  7  1  0  0  0  0 
  5  8  1  0  0  0  0 
M  END
> <Name>
CHLOROTRIETHYLSILANE

> <Source>
NIST2DMolFile

> <Tox>
0.831

> <CAS>
994-30-9

$$$$

  CDK

 14 13  0  0  0  0  0  0  0  0999 V2000
   -1.7868    0.6954   -0.0183 C   0  0  0  0  0  0  0  0  0  0  0  0
   -0.6260   -0.2316   -0.0167 C   0  0  0  0  0  0  0  0  0  0  0  0
   -1.7750    1.9119   -0.0332 O   0  0  0  0  0  0  0  0  0  0  0  0
   -2.9744    0.0271   -0.0007 O   0  0  0  0  0  0  0  0  0  0  0  0
    0.6267    0.2327   -0.0205 C   0  0  0  0  0  0  0  0  0  0  0  0
   -4.1794    0.7936   -0.0015 C   0  0  0  0  0  0  0  0  0  0  0  0
    1.7870   -0.6949   -0.0195 C   0  0  0  0  0  0  0  0  0  0  0  0
   -5.3577   -0.1208    0.0247 C   0  0  0  0  0  0  0  0  0  0  0  0
    1.7737   -1.9115   -0.0308 O   0  0  0  0  0  0  0  0  0  0  0  0
    2.9751   -0.0274   -0.0040 O   0  0  0  0  0  0  0  0  0  0  0  0
   -5.3325   -1.4473    0.0503 C   0  0  0  0  0  0  0  0  0  0  0  0
    4.1798   -0.7943   -0.0023 C   0  0  0  0  0  0  0  0  0  0  0  0
    5.3580    0.1204    0.0240 C   0  0  0  0  0  0  0  0  0  0  0  0
    5.3317    1.4468    0.0537 C   0  0  0  0  0  0  0  0  0  0  0  0
  1  2  1  0  0  0  0 
  1  3  2  0  0  0  0 
  1  4  1  0  0  0  0 
  2  5  2  0  0  0  0 
  4  6  1  0  0  0  0 
  5  7  1  0  0  0  0 
  6  8  1  0  0  0  0 
  7  9  2  0  0  0  0 
  7 10  1  0  0  0  0 
  8 11  2  0  0  0  0 
 10 12  1  0  0  0  0 
 12 13  1  0  0  0  0 
 13 14  2  0  0  0  0 
M  END
> <Name>
DIALLYL MALEATE

> <Source>
DougDB3DMolFile

> <Tox>
-2.166

> <CAS>
999-21-3

$$$$

  CDK

  9  8  0  0  0  0  0  0  0  0999 V2000
    2.6513   -0.0000    0.0000 N   0  0  0  0  0  0  0  0  0  0  0  0
    0.9803   -0.9803    0.0000 Si  0  0  0  0  0  0  0  0  0  0  0  0
    4.0988   -1.2596    0.0000 Si  0  0  0  0  0  0  0  0  0  0  0  0
    0.4114   -0.0000    0.0000 C   0  0  0  0  0  0  0  0  0  0  0  0
    1.5440   -1.9555    0.0000 C   0  0  0  0  0  0  0  0  0  0  0  0
    0.0000   -1.5440    0.0000 C   0  0  0  0  0  0  0  0  0  0  0  0
    4.6677   -0.2844    0.0000 C   0  0  0  0  0  0  0  0  0  0  0  0
    5.0791   -1.8285    0.0000 C   0  0  0  0  0  0  0  0  0  0  0  0
    3.5351   -2.2399    0.0000 C   0  0  0  0  0  0  0  0  0  0  0  0
  1  2  1  0  0  0  0 
  1  3  1  0  0  0  0 
  2  4  1  0  0  0  0 
  2  5  1  0  0  0  0 
  2  6  1  0  0  0  0 
  3  7  1  0  0  0  0 
  3  8  1  0  0  0  0 
  3  9  1  0  0  0  0 
M  END
> <Name>
HEXAMETHYLDISILIZANE

> <Source>
DSSTox2DMolFile

> <Tox>
1.140

> <CAS>
999-97-3

$$$$

  CDK

  9  8  0  0  0  0  0  0  0  0999 V2000
    0.2780   -1.3874    0.0000 N   0  0  0  0  0  0  0  0  0  0  0  0
   -0.9345   -2.0874    0.0000 O   0  0  0  0  0  0  0  0  0  0  0  0
    0.2780    0.0126    0.0000 O   0  0  0  0  0  0  0  0  0  0  0  0
    1.4904   -2.0874    0.0000 O   0  0  0  0  0  0  0  0  0  0  0  0
   -2.1469   -1.3874    0.0000 C   0  0  0  0  0  0  0  0  0  0  0  0
   -3.3593   -2.0874    0.0000 C   0  0  0  0  0  0  0  0  0  0  0  0
   -4.5718   -1.3874    0.0000 C   0  0  0  0  0  0  0  0  0  0  0  0
   -5.7842   -2.0874    0.0000 C   0  0  0  0  0  0  0  0  0  0  0  0
   -6.9966   -1.3874    0.0000 C   0  0  0  0  0  0  0  0  0  0  0  0
  2  1  1  0  0  0  0 
  3  1  2  0  0  0  0 
  4  1  1  0  0  0  0 
  2  5  1  0  0  0  0 
  6  5  1  0  0  0  0 
  7  6  1  0  0  0  0 
  8  7  1  0  0  0  0 
  9  8  1  0  0  0  0 
M  CHG  1   1   1
M  CHG  1   4  -1
M  END
> <Name>
1-PENTYL NITRATE

> <Source>
IndexNet2DMolFile

> <Tox>
0.705

> <CAS>
1002-16-0

$$$$

  CDK

 11 10  0  0  0  0  0  0  0  0999 V2000
    1.1390   -0.6673    0.0000 C   0  0  0  0  0  0  0  0  0  0  0  0
    2.2895   -0.0000    0.0000 C   0  0  0  0  0  0  0  0  0  0  0  0
    0.0000   -0.0000    0.0000 Cl  0  0  0  0  0  0  0  0  0  0  0  0
    3.4400   -0.6673    0.0000 C   0  0  0  0  0  0  0  0  0  0  0  0
    4.6019   -0.0000    0.0000 C   0  0  0  0  0  0  0  0  0  0  0  0
    5.7524   -0.6673    0.0000 C   0  0  0  0  0  0  0  0  0  0  0  0
    6.9029   -0.0000    0.0000 C   0  0  0  0  0  0  0  0  0  0  0  0
    8.0649   -0.6673    0.0000 C   0  0  0  0  0  0  0  0  0  0  0  0
    9.2154   -0.0000    0.0000 C   0  0  0  0  0  0  0  0  0  0  0  0
   10.3659   -0.6673    0.0000 C   0  0  0  0  0  0  0  0  0  0  0  0
   11.5049   -0.0000    0.0000 C   0  0  0  0  0  0  0  0  0  0  0  0
  1  2  1  0  0  0  0 
  1  3  1  0  0  0  0 
  2  4  1  0  0  0  0 
  4  5  1  0  0  0  0 
  5  6  1  0  0  0  0 
  6  7  1  0  0  0  0 
  7  8  1  0  0  0  0 
  8  9  1  0  0  0  0 
  9 10  1  0  0  0  0 
 10 11  1  0  0  0  0 
M  END
> <Name>
1-CHLORODECANE

> <Source>
DSSTox2DMolFile

> <Tox>
-2.007

> <CAS>
1002-69-3

$$$$

  CDK

  9  9  0  0  0  0  0  0  0  0999 V2000
    3.0793    2.5240    0.0000 O   0  0  0  0  0  0  0  0  0  0  0  0
    2.1706    1.6658    0.0000 S   0  0  0  0  0  0  0  0  0  0  0  0
    3.2307    1.0096    0.0000 O   0  0  0  0  0  0  0  0  0  0  0  0
    1.6154    0.9086    0.0000 C   0  0  0  0  0  0  0  0  0  0  0  0
    1.6154    2.4230    0.0000 C   0  0  0  0  0  0  0  0  0  0  0  0
    1.9182    0.0000    0.0000 C   0  0  0  0  0  0  0  0  0  0  0  0
    0.7572    1.2115    0.0000 C   0  0  0  0  0  0  0  0  0  0  0  0
    0.7572    2.1201    0.0000 C   0  0  0  0  0  0  0  0  0  0  0  0
    0.0000    2.6754    0.0000 C   0  0  0  0  0  0  0  0  0  0  0  0
  1  2  2  0  0  0  0 
  2  3  2  0  0  0  0 
  4  2  1  0  0  0  0 
  2  5  1  0  0  0  0 
  6  4  1  0  0  0  0 
  7  4  1  0  0  0  0 
  5  8  1  0  0  0  0 
  8  7  1  0  0  0  0 
  9  8  1  0  0  0  0 
M  END
> <Name>
2,4-Dimethylsulfolane

> <Source>
NIST2DMolFile

> <Tox>
-2.116

> <CAS>
1003-78-7

$$$$

  CDK

 14 14  0  0  0  0  0  0  0  0999 V2000
   -0.9560    0.9238   -0.0091 N   0  0  0  0  0  0  0  0  0  0  0  0
   -1.1838   -0.4273    0.1281 C   0  0  0  0  0  0  0  0  0  0  0  0
    0.3369    1.3543    0.0183 C   0  0  0  0  0  0  0  0  0  0  0  0
   -0.1721   -1.3513    0.2680 N   0  0  0  0  0  0  0  0  0  0  0  0
   -2.4897   -0.9101    0.2122 N   0  0  0  0  0  0  0  0  0  0  0  0
    1.3827    0.4935    0.1708 N   0  0  0  0  0  0  0  0  0  0  0  0
    0.6018    3.0954   -0.1642 S   0  0  0  0  0  0  0  0  0  0  0  0
    1.1023   -0.8515    0.3060 C   0  0  0  0  0  0  0  0  0  0  0  0
   -3.6253   -0.0852   -0.2712 C   0  0  0  0  0  0  0  0  0  0  0  0
    2.3894    3.3100   -0.0663 C   0  0  0  0  0  0  0  0  0  0  0  0
    2.1903   -1.6917    0.5833 N   0  0  0  0  0  0  0  0  0  0  0  0
   -4.9398   -0.8112   -0.0656 C   0  0  0  0  0  0  0  0  0  0  0  0
    2.1129   -3.1487    0.3386 C   0  0  0  0  0  0  0  0  0  0  0  0
    2.4705   -3.5469   -1.0811 C   0  0  0  0  0  0  0  0  0  0  0  0
  1  2  1  0  0  0  0 
  1  3  2  0  0  0  0 
  2  4  2  0  0  0  0 
  2  5  1  0  0  0  0 
  6  3  1  0  0  0  0 
  3  7  1  0  0  0  0 
  4  8  1  0  0  0  0 
  5  9  1  0  0  0  0 
  8  6  2  0  0  0  0 
  7 10  1  0  0  0  0 
  8 11  1  0  0  0  0 
  9 12  1  0  0  0  0 
 11 13  1  0  0  0  0 
 13 14  1  0  0  0  0 
M  END
> <Name>
SIMETRYN

> <Source>
DougDB3DMolFile

> <Tox>
-6.149

> <CAS>
1014-70-6

$$$$

  CDK

 20 22  0  0  0  0  0  0  0  0999 V2000
    3.8342    1.9369    0.0000 C   0  0  0  0  0  0  0  0  0  0  0  0
    3.6365    1.1858    0.0000 Cl  0  0  0  0  0  0  0  0  0  0  0  0
    2.4902    1.1463    0.0000 C   0  0  0  0  0  0  0  0  0  0  0  0
    3.4784    3.4784    0.0000 C   0  0  0  0  0  0  0  0  0  0  0  0
    5.2967    1.3835    0.0000 C   0  0  0  0  0  0  0  0  0  0  0  0
    2.0950    1.8578    0.0000 C   0  0  0  0  0  0  0  0  0  0  0  0
    2.1740    0.4348    0.0000 C   0  0  0  0  0  0  0  0  0  0  0  0
    2.7274    3.8342    0.0000 Cl  0  0  0  0  0  0  0  0  0  0  0  0
    3.5575    4.2690    0.0000 Cl  0  0  0  0  0  0  0  0  0  0  0  0
    4.0318    2.7274    0.0000 C   0  0  0  0  0  0  0  0  0  0  0  0
    5.6920    0.6720    0.0000 Cl  0  0  0  0  0  0  0  0  0  0  0  0
    5.4944    2.1345    0.0000 C   0  0  0  0  0  0  0  0  0  0  0  0
    1.3044    1.9764    0.0000 C   0  0  0  0  0  0  0  0  0  0  0  0
    1.4230    0.1976    0.0000 O   0  0  0  0  0  0  0  0  0  0  0  0
    4.2690    3.4784    0.0000 Cl  0  0  0  0  0  0  0  0  0  0  0  0
    6.1663    2.5298    0.0000 Cl  0  0  0  0  0  0  0  0  0  0  0  0
    0.7115    1.4230    0.0000 O   0  0  0  0  0  0  0  0  0  0  0  0
    0.7510    0.6324    0.0000 S   0  0  0  0  0  0  0  0  0  0  0  0
    0.3162    0.0000    0.0000 O   0  0  0  0  0  0  0  0  0  0  0  0
    0.0000    0.6324    0.0000 O   0  0  0  0  0  0  0  0  0  0  0  0
  1  2  1  0  0  0  0 
  1  3  1  0  0  0  0 
  1  4  1  0  0  0  0 
  5  1  1  0  0  0  0 
  3  6  1  0  0  0  0 
  3  7  1  0  0  0  0 
  4  8  1  0  0  0  0 
  4  9  1  0  0  0  0 
 10  4  1  0  0  0  0 
  5 11  1  0  0  0  0 
 12  5  2  0  0  0  0 
  6 10  1  0  0  0  0 
 13  6  1  0  0  0  0 
  7 14  1  0  0  0  0 
 10 12  1  0  0  0  0 
 10 15  1  0  0  0  0 
 12 16  1  0  0  0  0 
 17 13  1  0  0  0  0 
 14 18  1  0  0  0  0 
 18 17  1  0  0  0  0 
 18 19  2  0  0  0  0 
 18 20  2  0  0  0  0 
M  END
> <Name>
ENDOSULFAN SULFATE

> <Source>
NIST2DMolFile

> <Tox>
-6.553

> <CAS>
1031-07-8

$$$$

  CDK

  8  7  0  0  0  0  0  0  0  0999 V2000
    3.8807    2.0891    1.0077 C   0  0  0  0  0  0  0  0  0  0  0  0
    3.2703    3.0203    2.0734 C   0  0  0  0  0  0  0  0  0  0  0  0
    3.4774    0.6377    1.1347 C   0  0  0  0  0  0  0  0  0  0  0  0
    3.8699    4.4290    1.8780 C   0  0  0  0  0  0  0  0  0  0  0  0
    1.7439    3.1033    1.8797 C   0  0  0  0  0  0  0  0  0  0  0  0
    3.5835    2.5090    3.4802 C   0  0  0  0  0  0  0  0  0  0  0  0
    5.3627    4.4700    2.1146 C   0  0  0  0  0  0  0  0  0  0  0  0
    1.0804    4.0302    2.8750 C   0  0  0  0  0  0  0  0  0  0  0  0
  1  2  1  0  0  0  0 
  1  3  1  0  0  0  0 
  2  4  1  0  0  0  0 
  2  5  1  0  0  0  0 
  2  6  1  0  0  0  0 
  4  7  1  0  0  0  0 
  5  8  1  0  0  0  0 
M  END
> <Name>
3-METHYL-3-ETHYLPENTANE

> <Source>
NIST3DMolFile

> <Tox>
1.362

> <CAS>
1067-08-9

$$$$

  CDK

  9  8  0  0  0  0  0  0  0  0999 V2000
    3.1218    3.7717    2.6033 C   0  0  0  0  0  0  0  0  0  0  0  0
    2.2359    2.5347    2.8507 C   0  0  0  0  0  0  0  0  0  0  0  0
    3.7570    3.8344    1.2341 C   0  0  0  0  0  0  0  0  0  0  0  0
    1.7883    2.5515    4.3328 C   0  0  0  0  0  0  0  0  0  0  0  0
    3.0373    1.2460    2.5862 C   0  0  0  0  0  0  0  0  0  0  0  0
    0.9570    2.5582    1.9841 C   0  0  0  0  0  0  0  0  0  0  0  0
    1.0299    3.7982    4.7330 C   0  0  0  0  0  0  0  0  0  0  0  0
    4.2010    1.0210    3.5283 C   0  0  0  0  0  0  0  0  0  0  0  0
    1.1038    2.1686    0.5305 C   0  0  0  0  0  0  0  0  0  0  0  0
  1  2  1  0  0  0  0 
  1  3  1  0  0  0  0 
  2  4  1  0  0  0  0 
  2  5  1  0  0  0  0 
  2  6  1  0  0  0  0 
  4  7  1  0  0  0  0 
  5  8  1  0  0  0  0 
  6  9  1  0  0  0  0 
M  END
> <Name>
3,3-DIETHYLPENTANE

> <Source>
NIST3DMolFile

> <Tox>
0.863

> <CAS>
1067-20-5

$$$$

  CDK

  9  8  0  0  0  0  0  0  0  0999 V2000
    4.5308    0.9944    2.5394 C   0  0  0  0  0  0  0  0  0  0  0  0
    3.4380    1.9822    2.0692 C   0  0  0  0  0  0  0  0  0  0  0  0
    5.5953    0.8498    1.4604 C   0  0  0  0  0  0  0  0  0  0  0  0
    5.1868    1.3846    3.8537 C   0  0  0  0  0  0  0  0  0  0  0  0
    2.1579    1.8408    2.9231 C   0  0  0  0  0  0  0  0  0  0  0  0
    3.9951    3.4028    1.9547 C   0  0  0  0  0  0  0  0  0  0  0  0
    2.1283    2.7096    4.1696 C   0  0  0  0  0  0  0  0  0  0  0  0
    0.9144    2.1137    2.0873 C   0  0  0  0  0  0  0  0  0  0  0  0
    3.1873    4.2860    1.0313 C   0  0  0  0  0  0  0  0  0  0  0  0
  1  2  1  0  0  0  0 
  1  3  1  0  0  0  0 
  1  4  1  0  0  0  0 
  2  5  1  0  0  0  0 
  2  6  1  0  0  0  0 
  5  7  1  0  0  0  0 
  5  8  1  0  0  0  0 
  6  9  1  0  0  0  0 
M  END
> <Name>
2,4-DIMETHYL-3-ETHYLPENTANE

> <Source>
NIST3DMolFile

> <Tox>
1.004

> <CAS>
1068-87-7

$$$$

  CDK

  9  8  0  0  0  0  0  0  0  0999 V2000
    3.8446    2.0134    1.8249 C   0  0  0  0  0  0  0  0  0  0  0  0
    2.6834    2.6358    2.6048 C   0  0  0  0  0  0  0  0  0  0  0  0
    5.0819    1.8527    2.7092 C   0  0  0  0  0  0  0  0  0  0  0  0
    1.5485    3.1098    1.6799 C   0  0  0  0  0  0  0  0  0  0  0  0
    2.1572    1.6572    3.6426 C   0  0  0  0  0  0  0  0  0  0  0  0
    6.1322    1.0051    2.0148 C   0  0  0  0  0  0  0  0  0  0  0  0
    5.6521    3.2100    3.0861 C   0  0  0  0  0  0  0  0  0  0  0  0
    2.0408    4.2066    0.7497 C   0  0  0  0  0  0  0  0  0  0  0  0
    0.9459    1.9632    0.8836 C   0  0  0  0  0  0  0  0  0  0  0  0
  1  2  1  0  0  0  0 
  1  3  1  0  0  0  0 
  2  4  1  0  0  0  0 
  2  5  1  0  0  0  0 
  3  6  1  0  0  0  0 
  3  7  1  0  0  0  0 
  4  8  1  0  0  0  0 
  4  9  1  0  0  0  0 
M  END
> <Name>
2,3,5-TRIMETHYLHEXANE

> <Source>
NIST3DMolFile

> <Tox>
1.068

> <CAS>
1069-53-0

$$$$

  CDK

  9  8  0  0  0  0  0  0  0  0999 V2000
    3.3262    2.0708    1.6507 C   0  0  0  0  0  0  0  0  0  0  0  0
    1.8537    1.8714    2.0661 C   0  0  0  0  0  0  0  0  0  0  0  0
    4.3359    2.8469    2.5220 C   0  0  0  0  0  0  0  0  0  0  0  0
    1.7121    1.1668    3.4111 C   0  0  0  0  0  0  0  0  0  0  0  0
    1.2113    0.9765    0.9941 C   0  0  0  0  0  0  0  0  0  0  0  0
    1.0769    3.1853    2.1012 C   0  0  0  0  0  0  0  0  0  0  0  0
    3.8889    4.2760    2.8109 C   0  0  0  0  0  0  0  0  0  0  0  0
    5.6463    2.9150    1.7216 C   0  0  0  0  0  0  0  0  0  0  0  0
    4.6318    2.1348    3.8397 C   0  0  0  0  0  0  0  0  0  0  0  0
  1  2  1  0  0  0  0 
  1  3  1  0  0  0  0 
  2  4  1  0  0  0  0 
  2  5  1  0  0  0  0 
  2  6  1  0  0  0  0 
  3  7  1  0  0  0  0 
  3  8  1  0  0  0  0 
  3  9  1  0  0  0  0 
M  END
> <Name>
2,2,4,4-TETRAMETHYLPENTANE

> <Source>
NIST3DMolFile

> <Tox>
1.301

> <CAS>
1070-87-7

$$$$

  CDK

  9  8  0  0  0  0  0  0  0  0999 V2000
    4.5079    3.7723    0.9899 C   0  0  0  0  0  0  0  0  0  0  0  0
    3.2241    3.6167    1.7962 C   0  0  0  0  0  0  0  0  0  0  0  0
    5.8144    3.6430    1.7966 C   0  0  0  0  0  0  0  0  0  0  0  0
    2.7308    2.1806    1.8657 C   0  0  0  0  0  0  0  0  0  0  0  0
    6.0038    2.2128    2.2958 C   0  0  0  0  0  0  0  0  0  0  0  0
    5.8069    4.6054    2.9819 C   0  0  0  0  0  0  0  0  0  0  0  0
    6.9865    3.9981    0.8789 C   0  0  0  0  0  0  0  0  0  0  0  0
    1.4272    2.0782    2.6407 C   0  0  0  0  0  0  0  0  0  0  0  0
    0.9413    0.6485    2.7194 C   0  0  0  0  0  0  0  0  0  0  0  0
  1  2  1  0  0  0  0 
  1  3  1  0  0  0  0 
  2  4  1  0  0  0  0 
  3  5  1  0  0  0  0 
  3  6  1  0  0  0  0 
  3  7  1  0  0  0  0 
  4  8  1  0  0  0  0 
  8  9  1  0  0  0  0 
M  END
> <Name>
2,2-DIMETHYLHEPTANE

> <Source>
NIST3DMolFile

> <Tox>
1.033

> <CAS>
1071-26-7

$$$$

  CDK

 10  9  0  0  0  0  0  0  0  0999 V2000
    3.3606    1.4251    2.0715 C   0  0  0  0  0  0  0  0  0  0  0  0
    4.3494    2.5370    1.7489 C   0  0  0  0  0  0  0  0  0  0  0  0
    1.9213    1.9222    2.2905 C   0  0  0  0  0  0  0  0  0  0  0  0
    5.8199    2.1364    1.9585 C   0  0  0  0  0  0  0  0  0  0  0  0
    1.3892    2.6017    1.0307 C   0  0  0  0  0  0  0  0  0  0  0  0
    1.0357    0.7181    2.6137 C   0  0  0  0  0  0  0  0  0  0  0  0
    1.8767    2.9040    3.4593 C   0  0  0  0  0  0  0  0  0  0  0  0
    6.0554    1.7497    3.4169 C   0  0  0  0  0  0  0  0  0  0  0  0
    6.7037    3.3343    1.6087 C   0  0  0  0  0  0  0  0  0  0  0  0
    6.1935    0.9661    1.0516 C   0  0  0  0  0  0  0  0  0  0  0  0
  1  2  1  0  0  0  0 
  1  3  1  0  0  0  0 
  2  4  1  0  0  0  0 
  3  5  1  0  0  0  0 
  3  6  1  0  0  0  0 
  3  7  1  0  0  0  0 
  4  8  1  0  0  0  0 
  4  9  1  0  0  0  0 
  4 10  1  0  0  0  0 
M  END
> <Name>
2,2,5,5-TETRAMETHYLHEXANE

> <Source>
NIST3DMolFile

> <Tox>
0.942

> <CAS>
1071-81-4

$$$$

  CDK

 10  9  0  0  0  0  0  0  0  0999 V2000
    5.7567   -1.3423    0.0000 P   0  0  0  0  0  0  0  0  0  0  0  0
    5.0925   -0.1799    0.0000 O   0  0  0  0  0  0  0  0  0  0  0  0
    4.6151   -1.9927    0.0000 C   0  0  0  0  0  0  0  0  0  0  0  0
    6.4348   -2.4840    0.0000 O   0  0  0  0  0  0  0  0  0  0  0  0
    6.9191   -0.6573    0.0000 O   0  0  0  0  0  0  0  0  0  0  0  0
    3.4734   -1.3285    0.0000 N   0  0  0  0  0  0  0  0  0  0  0  0
    2.3179   -1.9927    0.0000 C   0  0  0  0  0  0  0  0  0  0  0  0
    1.1624   -1.3285    0.0000 C   0  0  0  0  0  0  0  0  0  0  0  0
    0.0000   -1.9650    0.0000 O   0  0  0  0  0  0  0  0  0  0  0  0
    1.1624   -0.0000    0.0000 O   0  0  0  0  0  0  0  0  0  0  0  0
  1  2  2  0  0  0  0 
  1  3  1  0  0  0  0 
  1  4  1  0  0  0  0 
  1  5  1  0  0  0  0 
  3  6  1  0  0  0  0 
  6  7  1  0  0  0  0 
  8  7  1  0  0  0  0 
  8  9  2  0  0  0  0 
  8 10  1  0  0  0  0 
M  END
> <Name>
GLYPHOSPHATE

> <Source>
DSSTox2DMolFile

> <Tox>
-7.009

> <CAS>
1071-83-6

$$$$

  CDK

  9  9  0  0  0  0  0  0  0  0999 V2000
    1.9513    1.7512    0.0000 C   0  0  0  0  0  0  0  0  0  0  0  0
    1.4510    0.8506    0.0000 C   0  0  0  0  0  0  0  0  0  0  0  0
    3.0020    1.7512    0.0000 C   0  0  0  0  0  0  0  0  0  0  0  0
    1.9513    0.0000    0.0000 C   0  0  0  0  0  0  0  0  0  0  0  0
    0.5003    0.8506    0.0000 C   0  0  0  0  0  0  0  0  0  0  0  0
    3.5024    0.8506    0.0000 C   0  0  0  0  0  0  0  0  0  0  0  0
    2.9520    0.0000    0.0000 C   0  0  0  0  0  0  0  0  0  0  0  0
    0.0000    0.0000    0.0000 C   0  0  0  0  0  0  0  0  0  0  0  0
    4.4530    0.8506    0.0000 Cl  0  0  0  0  0  0  0  0  0  0  0  0
  1  2  2  0  0  0  0 
  3  1  1  0  0  0  0 
  2  4  1  0  0  0  0 
  2  5  1  0  0  0  0 
  6  3  2  0  0  0  0 
  4  7  2  0  0  0  0 
  5  8  2  0  0  0  0 
  7  6  1  0  0  0  0 
  6  9  1  0  0  0  0 
M  END
> <Name>
P-CHLOROSTYRENE

> <Source>
NIST2DMolFile

> <Tox>
-0.088

> <CAS>
1073-67-2

$$$$

  CDK

 10 10  0  0  0  0  0  0  0  0999 V2000
    1.7753    4.3782    2.1267 C   0  0  0  0  0  0  0  0  0  0  0  0
    0.8391    5.5428    1.8963 C   0  0  0  0  0  0  0  0  0  0  0  0
    2.9424    4.4027    1.1480 C   0  0  0  0  0  0  0  0  0  0  0  0
    3.8431    3.2263    1.3549 C   0  0  0  0  0  0  0  0  0  0  0  0
    3.5612    2.0424    0.6688 C   0  0  0  0  0  0  0  0  0  0  0  0
    4.9506    3.2776    2.2130 C   0  0  0  0  0  0  0  0  0  0  0  0
    4.3655    0.9213    0.8255 C   0  0  0  0  0  0  0  0  0  0  0  0
    5.7547    2.1445    2.3617 C   0  0  0  0  0  0  0  0  0  0  0  0
    5.2956    4.5109    2.9692 C   0  0  0  0  0  0  0  0  0  0  0  0
    5.4660    0.9733    1.6736 C   0  0  0  0  0  0  0  0  0  0  0  0
  1  2  1  0  0  0  0 
  1  3  1  0  0  0  0 
  3  4  1  0  0  0  0 
  5  4  2  0  0  0  0 
  4  6  1  0  0  0  0 
  7  5  1  0  0  0  0 
  6  8  2  0  0  0  0 
  6  9  1  0  0  0  0 
 10  7  2  0  0  0  0 
  8 10  1  0  0  0  0 
M  END
> <Name>
1-METHYL-2-PROPYLBENZENE

> <Source>
NIST3DMolFile

> <Tox>
-0.003

> <CAS>
1074-17-5

$$$$

  CDK

 10 10  0  0  0  0  0  0  0  0999 V2000
    1.8585    4.7440    1.9324 C   0  0  0  0  0  0  0  0  0  0  0  0
    0.7354    5.6855    1.5613 C   0  0  0  0  0  0  0  0  0  0  0  0
    2.6075    4.2595    0.6979 C   0  0  0  0  0  0  0  0  0  0  0  0
    3.7104    3.3239    1.0745 C   0  0  0  0  0  0  0  0  0  0  0  0
    3.4936    1.9461    1.0794 C   0  0  0  0  0  0  0  0  0  0  0  0
    4.9632    3.8276    1.4271 C   0  0  0  0  0  0  0  0  0  0  0  0
    4.5232    1.0808    1.4344 C   0  0  0  0  0  0  0  0  0  0  0  0
    5.9957    2.9613    1.7836 C   0  0  0  0  0  0  0  0  0  0  0  0
    5.7696    1.5831    1.7849 C   0  0  0  0  0  0  0  0  0  0  0  0
    7.3314    3.4888    2.1637 C   0  0  0  0  0  0  0  0  0  0  0  0
  1  2  1  0  0  0  0 
  1  3  1  0  0  0  0 
  3  4  1  0  0  0  0 
  5  4  2  0  0  0  0 
  4  6  1  0  0  0  0 
  7  5  1  0  0  0  0 
  6  8  2  0  0  0  0 
  9  7  2  0  0  0  0 
  8  9  1  0  0  0  0 
  8 10  1  0  0  0  0 
M  END
> <Name>
1-METHYL-3-PROPYLBENZENE

> <Source>
NIST3DMolFile

> <Tox>
0.425

> <CAS>
1074-43-7

$$$$

  CDK

 10 10  0  0  0  0  0  0  0  0999 V2000
    1.9192    4.7313    1.5441 C   0  0  0  0  0  0  0  0  0  0  0  0
    0.9294    5.8352    1.8393 C   0  0  0  0  0  0  0  0  0  0  0  0
    3.2119    4.9201    2.3271 C   0  0  0  0  0  0  0  0  0  0  0  0
    4.1803    3.8209    2.0330 C   0  0  0  0  0  0  0  0  0  0  0  0
    5.1547    3.9829    1.0477 C   0  0  0  0  0  0  0  0  0  0  0  0
    4.1150    2.6198    2.7409 C   0  0  0  0  0  0  0  0  0  0  0  0
    6.0516    2.9577    0.7737 C   0  0  0  0  0  0  0  0  0  0  0  0
    5.0117    1.5949    2.4670 C   0  0  0  0  0  0  0  0  0  0  0  0
    5.9854    1.7559    1.4801 C   0  0  0  0  0  0  0  0  0  0  0  0
    6.9342    0.6542    1.1763 C   0  0  0  0  0  0  0  0  0  0  0  0
  1  2  1  0  0  0  0 
  1  3  1  0  0  0  0 
  3  4  1  0  0  0  0 
  4  5  2  0  0  0  0 
  6  4  1  0  0  0  0 
  5  7  1  0  0  0  0 
  8  6  2  0  0  0  0 
  7  9  2  0  0  0  0 
  9  8  1  0  0  0  0 
  9 10  1  0  0  0  0 
M  END
> <Name>
1-METHYL-4-PROPYLBENZENE

> <Source>
NIST3DMolFile

> <Tox>
0.041

> <CAS>
1074-55-1

$$$$

  CDK

 12 12  0  0  0  0  0  0  0  0999 V2000
    4.8054    1.8986    2.2270 C   0  0  0  0  0  0  0  0  0  0  0  0
    3.3034    2.0215    2.0195 C   0  0  0  0  0  0  0  0  0  0  0  0
    5.5641    2.1026    0.9211 C   0  0  0  0  0  0  0  0  0  0  0  0
    2.9110    3.4354    1.6183 C   0  0  0  0  0  0  0  0  0  0  0  0
    7.0382    2.1492    1.1531 C   0  0  0  0  0  0  0  0  0  0  0  0
    1.4459    3.5231    1.2270 C   0  0  0  0  0  0  0  0  0  0  0  0
    7.7664    0.9633    1.2643 C   0  0  0  0  0  0  0  0  0  0  0  0
    7.6978    3.3738    1.2640 C   0  0  0  0  0  0  0  0  0  0  0  0
    1.0576    4.9345    0.8484 C   0  0  0  0  0  0  0  0  0  0  0  0
    9.1383    1.0036    1.4827 C   0  0  0  0  0  0  0  0  0  0  0  0
    9.0708    3.4103    1.4812 C   0  0  0  0  0  0  0  0  0  0  0  0
    9.7926    2.2266    1.5908 C   0  0  0  0  0  0  0  0  0  0  0  0
  1  2  1  0  0  0  0 
  1  3  1  0  0  0  0 
  2  4  1  0  0  0  0 
  3  5  1  0  0  0  0 
  4  6  1  0  0  0  0 
  7  5  2  0  0  0  0 
  5  8  1  0  0  0  0 
  6  9  1  0  0  0  0 
 10  7  1  0  0  0  0 
  8 11  2  0  0  0  0 
 12 10  2  0  0  0  0 
 11 12  1  0  0  0  0 
M  END
> <Name>
N-HEXYLBENZENE

> <Source>
NIST3DMolFile

> <Tox>
-0.917

> <CAS>
1077-16-3

$$$$

  CDK

 15 15  0  0  0  0  0  0  0  0999 V2000
    5.6294    2.8100    2.5680 C   0  0  0  0  0  0  0  0  0  0  0  0
    4.4799    3.2054    1.6526 C   0  0  0  0  0  0  0  0  0  0  0  0
    6.2150    1.4521    2.2107 C   0  0  0  0  0  0  0  0  0  0  0  0
    3.2444    2.4002    1.9004 C   0  0  0  0  0  0  0  0  0  0  0  0
    7.4615    1.1485    3.0260 C   0  0  0  0  0  0  0  0  0  0  0  0
    2.7862    1.5021    0.9354 C   0  0  0  0  0  0  0  0  0  0  0  0
    2.5282    2.5554    3.0888 C   0  0  0  0  0  0  0  0  0  0  0  0
    8.5971    2.1095    2.7016 C   0  0  0  0  0  0  0  0  0  0  0  0
    1.6235    0.7708    1.1560 C   0  0  0  0  0  0  0  0  0  0  0  0
    1.3694    1.8212    3.3071 C   0  0  0  0  0  0  0  0  0  0  0  0
    9.7526    1.9723    3.6779 C   0  0  0  0  0  0  0  0  0  0  0  0
    0.9149    0.9285    2.3414 C   0  0  0  0  0  0  0  0  0  0  0  0
    9.3561    2.3750    5.0911 C   0  0  0  0  0  0  0  0  0  0  0  0
   10.4069    1.9653    6.1109 C   0  0  0  0  0  0  0  0  0  0  0  0
   10.5383    0.4604    6.2015 C   0  0  0  0  0  0  0  0  0  0  0  0
  1  2  1  0  0  0  0 
  1  3  1  0  0  0  0 
  2  4  1  0  0  0  0 
  3  5  1  0  0  0  0 
  4  6  2  0  0  0  0 
  7  4  1  0  0  0  0 
  5  8  1  0  0  0  0 
  6  9  1  0  0  0  0 
 10  7  2  0  0  0  0 
  8 11  1  0  0  0  0 
  9 12  2  0  0  0  0 
 12 10  1  0  0  0  0 
 11 13  1  0  0  0  0 
 13 14  1  0  0  0  0 
 14 15  1  0  0  0  0 
M  END
> <Name>
N-NONYLBENZENE

> <Source>
NIST3DMolFile

> <Tox>
-2.243

> <CAS>
1081-77-2

$$$$

  CDK

 18 18  0  0  0  0  0  0  0  0999 V2000
    3.4706    3.5209    0.0000 S   0  0  0  0  0  0  0  0  0  0  0  0
    2.6156    3.0179    0.0000 N   0  0  0  0  0  0  0  0  0  0  0  0
    4.3760    4.0239    0.0000 N   0  0  0  0  0  0  0  0  0  0  0  0
    2.9676    4.3760    0.0000 O   0  0  0  0  0  0  0  0  0  0  0  0
    3.9736    2.6659    0.0000 O   0  0  0  0  0  0  0  0  0  0  0  0
    1.7605    3.5209    0.0000 S   0  0  0  0  0  0  0  0  0  0  0  0
    2.6156    2.0120    0.0000 C   0  0  0  0  0  0  0  0  0  0  0  0
    5.2311    3.5209    0.0000 C   0  0  0  0  0  0  0  0  0  0  0  0
    4.3760    5.0299    0.0000 C   0  0  0  0  0  0  0  0  0  0  0  0
    0.8551    3.0179    0.0000 C   0  0  0  0  0  0  0  0  0  0  0  0
    1.7605    1.5090    0.0000 C   0  0  0  0  0  0  0  0  0  0  0  0
    3.4706    1.5090    0.0000 C   0  0  0  0  0  0  0  0  0  0  0  0
    1.3581    2.1629    0.0000 Cl  0  0  0  0  0  0  0  0  0  0  0  0
    0.3521    3.8730    0.0000 Cl  0  0  0  0  0  0  0  0  0  0  0  0
    0.0000    2.5150    0.0000 F   0  0  0  0  0  0  0  0  0  0  0  0
    1.7605    0.5030    0.0000 C   0  0  0  0  0  0  0  0  0  0  0  0
    3.4706    0.5030    0.0000 C   0  0  0  0  0  0  0  0  0  0  0  0
    2.6156    0.0000    0.0000 C   0  0  0  0  0  0  0  0  0  0  0  0
  1  2  1  0  0  0  0 
  1  3  1  0  0  0  0 
  1  4  2  0  0  0  0 
  1  5  2  0  0  0  0 
  2  6  1  0  0  0  0 
  2  7  1  0  0  0  0 
  3  8  1  0  0  0  0 
  3  9  1  0  0  0  0 
  6 10  1  0  0  0  0 
 11  7  2  0  0  0  0 
  7 12  1  0  0  0  0 
 10 13  1  0  0  0  0 
 10 14  1  0  0  0  0 
 10 15  1  0  0  0  0 
 16 11  1  0  0  0  0 
 12 17  2  0  0  0  0 
 18 16  2  0  0  0  0 
 17 18  1  0  0  0  0 
M  END
> <Name>
DICHLOFLUANID

> <Source>
NIST2DMolFile

> <Tox>
-6.951

> <CAS>
1085-98-9

$$$$

  CDK

 13 12  0  0  0  0  0  0  0  0999 V2000
    3.9887   -4.6108    0.0000 O   0  0  0  0  0  0  0  0  0  0  0  0
    2.6614   -4.6108    0.0000 C   0  0  0  0  0  0  0  0  0  0  0  0
    1.9978   -5.7583    0.0000 N   0  0  0  0  0  0  0  0  0  0  0  0
    1.9978   -3.4564    0.0000 S   0  0  0  0  0  0  0  0  0  0  0  0
    2.6614   -6.9127    0.0000 C   0  0  0  0  0  0  0  0  0  0  0  0
    0.6636   -5.7583    0.0000 C   0  0  0  0  0  0  0  0  0  0  0  0
    2.6614   -2.3019    0.0000 C   0  0  0  0  0  0  0  0  0  0  0  0
    3.9887   -6.9127    0.0000 C   0  0  0  0  0  0  0  0  0  0  0  0
    0.0000   -6.9127    0.0000 C   0  0  0  0  0  0  0  0  0  0  0  0
    1.9978   -1.1544    0.0000 C   0  0  0  0  0  0  0  0  0  0  0  0
    4.6592   -5.7583    0.0000 C   0  0  0  0  0  0  0  0  0  0  0  0
    2.6614   -0.0000    0.0000 C   0  0  0  0  0  0  0  0  0  0  0  0
    5.9864   -5.7583    0.0000 C   0  0  0  0  0  0  0  0  0  0  0  0
  1  2  2  0  0  0  0 
  2  3  1  0  0  0  0 
  2  4  1  0  0  0  0 
  3  5  1  0  0  0  0 
  3  6  1  0  0  0  0 
  4  7  1  0  0  0  0 
  5  8  1  0  0  0  0 
  6  9  1  0  0  0  0 
  7 10  1  0  0  0  0 
  8 11  1  0  0  0  0 
 10 12  1  0  0  0  0 
 11 13  1  0  0  0  0 
M  END
> <Name>
PEBULATE

> <Source>
DSSTox2DMolFile

> <Tox>
-1.053

> <CAS>
1114-71-2

$$$$

  CDK

  4  3  0  0  0  0  0  0  0  0999 V2000
    0.5045   -0.5029    0.0000 O   0  0  0  0  0  0  0  0  0  0  0  0
   -0.5072    0.5448    0.0000 N   0  0  0  0  0  0  0  0  0  0  0  0
    1.7776    0.1283    0.0000 C   0  0  0  0  0  0  0  0  0  0  0  0
   -1.7748   -0.1701    0.0000 C   0  0  0  0  0  0  0  0  0  0  0  0
  1  2  1  0  0  0  0 
  1  3  1  0  0  0  0 
  2  4  1  0  0  0  0 
M  END
> <Name>
O,N-DIMETHYLHYDROXYLAMINE

> <Source>
Chemidplus3DMolFile

> <Tox>
2.579

> <CAS>
1117-97-1

$$$$

  CDK

 11 10  0  0  0  0  0  0  0  0999 V2000
    0.0000   -1.1573    0.0000 C   0  0  0  0  0  0  0  0  0  0  0  0
    0.6651   -2.3080    0.0000 O   0  0  0  0  0  0  0  0  0  0  0  0
    1.9954   -2.3080    0.0000 C   0  0  0  0  0  0  0  0  0  0  0  0
    2.6605   -1.1573    0.0000 O   0  0  0  0  0  0  0  0  0  0  0  0
    2.6605   -3.4587    0.0000 C   0  0  0  0  0  0  0  0  0  0  0  0
    3.9908   -3.4587    0.0000 C   0  0  0  0  0  0  0  0  0  0  0  0
    4.6559   -2.3080    0.0000 C   0  0  0  0  0  0  0  0  0  0  0  0
    5.9861   -2.3080    0.0000 C   0  0  0  0  0  0  0  0  0  0  0  0
    6.6513   -3.4587    0.0000 O   0  0  0  0  0  0  0  0  0  0  0  0
    6.6513   -1.1573    0.0000 O   0  0  0  0  0  0  0  0  0  0  0  0
    5.9861   -0.0000    0.0000 C   0  0  0  0  0  0  0  0  0  0  0  0
  1  2  1  0  0  0  0 
  2  3  1  0  0  0  0 
  3  4  2  0  0  0  0 
  3  5  1  0  0  0  0 
  5  6  1  0  0  0  0 
  6  7  1  0  0  0  0 
  7  8  1  0  0  0  0 
  8  9  2  0  0  0  0 
  8 10  1  0  0  0  0 
 10 11  1  0  0  0  0 
M  END
> <Name>
PENTANEDIOIC ACID, DIMETHYL ESTER

> <Source>
DSSTox2DMolFile

> <Tox>
-0.745

> <CAS>
1119-40-0

$$$$

  CDK

 11 10  0  0  0  0  0  0  0  0999 V2000
    0.0000   -0.6673    0.0000 C   0  0  0  0  0  0  0  0  0  0  0  0
    1.1505   -0.0000    0.0000 C   0  0  0  0  0  0  0  0  0  0  0  0
    2.3010   -0.6673    0.0000 C   0  0  0  0  0  0  0  0  0  0  0  0
    3.4515   -0.0000    0.0000 C   0  0  0  0  0  0  0  0  0  0  0  0
    4.6020   -0.6673    0.0000 C   0  0  0  0  0  0  0  0  0  0  0  0
    5.7525   -0.0000    0.0000 C   0  0  0  0  0  0  0  0  0  0  0  0
    6.9029   -0.6673    0.0000 C   0  0  0  0  0  0  0  0  0  0  0  0
    8.0534   -0.0000    0.0000 C   0  0  0  0  0  0  0  0  0  0  0  0
    9.2039   -0.6673    0.0000 C   0  0  0  0  0  0  0  0  0  0  0  0
   10.3544   -0.0000    0.0000 C   0  0  0  0  0  0  0  0  0  0  0  0
   11.5049   -0.6673    0.0000 C   0  0  0  0  0  0  0  0  0  0  0  0
  1  2  1  0  0  0  0 
  2  3  1  0  0  0  0 
  3  4  1  0  0  0  0 
  4  5  1  0  0  0  0 
  5  6  1  0  0  0  0 
  6  7  1  0  0  0  0 
  7  8  1  0  0  0  0 
  8  9  1  0  0  0  0 
  9 10  1  0  0  0  0 
 10 11  1  0  0  0  0 
M  END
> <Name>
N-UNDECANE

> <Source>
DSSTox2DMolFile

> <Tox>
-0.385

> <CAS>
1120-21-4

$$$$

  CDK

 11 11  0  0  0  0  0  0  0  0999 V2000
    0.0000   -2.6619    0.0000 C   0  0  0  0  0  0  0  0  0  0  0  0
    1.1535   -2.0004    0.0000 C   0  0  0  0  0  0  0  0  0  0  0  0
    2.3070   -2.6619    0.0000 C   0  0  0  0  0  0  0  0  0  0  0  0
    3.4605   -2.0004    0.0000 C   0  0  0  0  0  0  0  0  0  0  0  0
    4.6059   -2.6619    0.0000 O   0  0  0  0  0  0  0  0  0  0  0  0
    5.7594   -2.0004    0.0000 C   0  0  0  0  0  0  0  0  0  0  0  0
    5.7594   -0.6695    0.0000 C   0  0  0  0  0  0  0  0  0  0  0  0
    6.9128   -2.6619    0.0000 C   0  0  0  0  0  0  0  0  0  0  0  0
    6.9128   -0.0000    0.0000 C   0  0  0  0  0  0  0  0  0  0  0  0
    8.0663   -2.0004    0.0000 C   0  0  0  0  0  0  0  0  0  0  0  0
    8.0663   -0.6695    0.0000 C   0  0  0  0  0  0  0  0  0  0  0  0
  1  2  1  0  0  0  0 
  2  3  1  0  0  0  0 
  3  4  1  0  0  0  0 
  4  5  1  0  0  0  0 
  5  6  1  0  0  0  0 
  6  7  2  0  0  0  0 
  6  8  1  0  0  0  0 
  7  9  1  0  0  0  0 
 10  8  2  0  0  0  0 
  9 11  2  0  0  0  0 
 11 10  1  0  0  0  0 
M  END
> <Name>
BUTYL PHENYL ETHER

> <Source>
DSSTox2DMolFile

> <Tox>
-0.529

> <CAS>
1126-79-0

$$$$

  CDK

 12 13  0  0  0  0  0  0  0  0999 V2000
    5.4671    4.2827    2.0773 C   0  0  0  0  0  0  0  0  0  0  0  0
    6.2146    5.0361    0.9968 C   0  0  0  0  0  0  0  0  0  0  0  0
    3.9855    4.3768    1.8869 C   0  0  0  0  0  0  0  0  0  0  0  0
    3.3415    5.5569    2.1756 C   0  0  0  0  0  0  0  0  0  0  0  0
    3.2314    3.2610    1.4106 C   0  0  0  0  0  0  0  0  0  0  0  0
    1.9470    5.6875    1.9988 C   0  0  0  0  0  0  0  0  0  0  0  0
    1.8377    3.3994    1.2315 C   0  0  0  0  0  0  0  0  0  0  0  0
    3.8354    2.0087    1.1114 C   0  0  0  0  0  0  0  0  0  0  0  0
    1.2069    4.6351    1.5339 C   0  0  0  0  0  0  0  0  0  0  0  0
    1.0804    2.2967    0.7496 C   0  0  0  0  0  0  0  0  0  0  0  0
    3.0868    0.9616    0.6499 C   0  0  0  0  0  0  0  0  0  0  0  0
    1.6925    1.1071    0.4639 C   0  0  0  0  0  0  0  0  0  0  0  0
  1  2  1  0  0  0  0 
  1  3  1  0  0  0  0 
  4  3  2  0  0  0  0 
  3  5  1  0  0  0  0 
  6  4  1  0  0  0  0 
  7  5  2  0  0  0  0 
  5  8  1  0  0  0  0 
  9  6  2  0  0  0  0 
  7  9  1  0  0  0  0 
 10  7  1  0  0  0  0 
  8 11  2  0  0  0  0 
 12 10  2  0  0  0  0 
 11 12  1  0  0  0  0 
M  END
> <Name>
1-ETHYLNAPHTHALENE

> <Source>
NIST3DMolFile

> <Tox>
-1.599

> <CAS>
1127-76-0

$$$$

  CDK

 13 13  0  0  0  0  0  0  0  0999 V2000
    0.8014    2.6936    0.0001 O   0  0  0  0  0  0  0  0  0  0  0  0
    0.5545    1.3548   -0.0003 C   0  0  0  0  0  0  0  0  0  0  0  0
   -0.3303    3.5623    0.0003 C   0  0  0  0  0  0  0  0  0  0  0  0
   -0.7599    0.8877   -0.0005 C   0  0  0  0  0  0  0  0  0  0  0  0
    1.6161    0.4501   -0.0003 C   0  0  0  0  0  0  0  0  0  0  0  0
   -1.0126   -0.4841   -0.0005 C   0  0  0  0  0  0  0  0  0  0  0  0
    1.3634   -0.9218   -0.0005 C   0  0  0  0  0  0  0  0  0  0  0  0
    0.0490   -1.3888   -0.0007 C   0  0  0  0  0  0  0  0  0  0  0  0
   -2.3832   -0.9711   -0.0002 C   0  0  0  0  0  0  0  0  0  0  0  0
    2.3995   -1.8046    0.0006 O   0  0  0  0  0  0  0  0  0  0  0  0
   -3.2947    0.0400    0.0011 O   0  0  0  0  0  0  0  0  0  0  0  0
   -2.7207   -2.1594    0.0001 O   0  0  0  0  0  0  0  0  0  0  0  0
    3.7176   -1.2586    0.0007 C   0  0  0  0  0  0  0  0  0  0  0  0
  1  2  1  0  0  0  0 
  1  3  1  0  0  0  0 
  2  4  2  0  0  0  0 
  2  5  1  0  0  0  0 
  6  4  1  0  0  0  0 
  7  5  2  0  0  0  0 
  6  8  2  0  0  0  0 
  6  9  1  0  0  0  0 
 10  7  1  0  0  0  0 
  7  8  1  0  0  0  0 
 11  9  1  0  0  0  0 
 12  9  2  0  0  0  0 
 10 13  1  0  0  0  0 
M  END
> <Name>
3,5-DIMETHOXYBENZOIC ACID

> <Source>
Chemidplus3DMolFile

> <Tox>
-6.860

> <CAS>
1132-21-4

$$$$

  CDK

  9  8  0  0  0  0  0  0  0  0999 V2000
    2.3812    2.8621    1.4777 C   0  0  0  0  0  0  0  0  0  0  0  0
    3.7244    3.2312    2.1709 C   0  0  0  0  0  0  0  0  0  0  0  0
    1.7322    1.5606    2.0013 C   0  0  0  0  0  0  0  0  0  0  0  0
    1.3952    4.0224    1.4857 C   0  0  0  0  0  0  0  0  0  0  0  0
    3.5392    3.6408    3.6291 C   0  0  0  0  0  0  0  0  0  0  0  0
    4.6908    2.0468    2.1042 C   0  0  0  0  0  0  0  0  0  0  0  0
    4.3621    4.4030    1.4157 C   0  0  0  0  0  0  0  0  0  0  0  0
    0.8378    0.9555    0.9276 C   0  0  0  0  0  0  0  0  0  0  0  0
    0.9422    1.7337    3.2886 C   0  0  0  0  0  0  0  0  0  0  0  0
  1  2  1  0  0  0  0 
  1  3  1  0  0  0  0 
  1  4  1  0  0  0  0 
  2  5  1  0  0  0  0 
  2  6  1  0  0  0  0 
  2  7  1  0  0  0  0 
  3  8  1  0  0  0  0 
  3  9  1  0  0  0  0 
M  END
> <Name>
2,2,3,4-TETRAMETHYLPENTANE

> <Source>
NIST3DMolFile

> <Tox>
1.100

> <CAS>
1186-53-4

$$$$

  CDK

  6  5  0  0  0  0  0  0  0  0999 V2000
    0.0000    0.0000    0.0000 C   0  0  0  0  0  0  0  0  0  0  0  0
    0.6200    1.1200   -0.8400 C   0  0  0  0  0  0  0  0  0  0  0  0
    2.1200    1.0000   -0.9200 C   0  0  0  0  0  0  0  0  0  0  0  0
    2.6600   -0.0800   -0.8800 O   0  0  0  0  0  0  0  0  0  0  0  0
    2.8600    2.1400   -1.0600 N   0  0  0  0  0  0  0  0  0  0  0  0
    4.3200    2.0600   -1.1600 C   0  0  0  0  0  0  0  0  0  0  0  0
  1  2  1  0  0  0  0 
  2  3  1  0  0  0  0 
  3  4  2  0  0  0  0 
  3  5  1  0  0  0  0 
  5  6  1  0  0  0  0 
M  END
> <Name>
N-METHYL PROPIONAMIDE

> <Source>
NIH3DMolFile

> <Tox>
0.061

> <CAS>
1187-58-2

$$$$

  CDK

  5  5  0  0  0  0  0  0  0  0999 V2000
    0.0000    1.6998    0.8903 O   0  0  0  0  0  0  0  0  0  0  0  0
    1.2007    1.7382    0.9106 C   0  0  0  0  0  0  0  0  0  0  0  0
    2.2263    2.8695    0.9556 C   0  0  0  0  0  0  0  0  0  0  0  0
    2.2975    0.6750    0.9018 C   0  0  0  0  0  0  0  0  0  0  0  0
    3.3508    1.8071    0.9473 C   0  0  0  0  0  0  0  0  0  0  0  0
  1  2  2  0  0  0  0 
  2  3  1  0  0  0  0 
  4  2  1  0  0  0  0 
  3  5  1  0  0  0  0 
  5  4  1  0  0  0  0 
M  END
> <Name>
CYCLOBUTANONE

> <Source>
NIST3DMolFile

> <Tox>
1.633

> <CAS>
1191-95-3

$$$$

  CDK

  7  7  0  0  0  0  0  0  0  0999 V2000
    2.0832    2.8336    3.8504 C   0  0  0  0  0  0  0  0  0  0  0  0
    2.3326    1.5075    3.1557 C   0  0  0  0  0  0  0  0  0  0  0  0
    2.0821    1.5391    1.6349 C   0  0  0  0  0  0  0  0  0  0  0  0
    3.8041    1.0865    3.2867 C   0  0  0  0  0  0  0  0  0  0  0  0
    0.9360    2.4192    1.1866 C   0  0  0  0  0  0  0  0  0  0  0  0
    3.4213    1.9577    1.0220 C   0  0  0  0  0  0  0  0  0  0  0  0
    4.4992    1.4479    1.9743 C   0  0  0  0  0  0  0  0  0  0  0  0
  1  2  1  0  0  0  0 
  2  3  1  0  0  0  0 
  4  2  1  0  0  0  0 
  3  5  1  0  0  0  0 
  3  6  1  0  0  0  0 
  7  4  1  0  0  0  0 
  6  7  1  0  0  0  0 
M  END
> <Name>
1,2-DIMETHYLCYCLOPENTANE (CIS)

> <Source>
NIST3DMolFile

> <Tox>
1.674

> <CAS>
1192-18-3

$$$$

  CDK

  7  7  0  0  0  0  0  0  0  0999 V2000
    4.5104    0.9506    1.6938 C   0  0  0  0  0  0  0  0  0  0  0  0
    3.4018    1.6885    1.7416 C   0  0  0  0  0  0  0  0  0  0  0  0
    3.3412    2.9808    2.4904 C   0  0  0  0  0  0  0  0  0  0  0  0
    2.1443    1.2733    1.0483 C   0  0  0  0  0  0  0  0  0  0  0  0
    2.3420    3.9367    1.8598 C   0  0  0  0  0  0  0  0  0  0  0  0
    0.9174    1.8340    1.7485 C   0  0  0  0  0  0  0  0  0  0  0  0
    0.9337    3.3562    1.8114 C   0  0  0  0  0  0  0  0  0  0  0  0
  1  2  2  0  0  0  0 
  3  2  1  0  0  0  0 
  2  4  1  0  0  0  0 
  5  3  1  0  0  0  0 
  4  6  1  0  0  0  0 
  7  5  1  0  0  0  0 
  6  7  1  0  0  0  0 
M  END
> <Name>
METHYLENE CYCLOHEXANE

> <Source>
NIST3DMolFile

> <Tox>
1.604

> <CAS>
1192-37-6

$$$$

  CDK

 12 13  0  0  0  0  0  0  0  0999 V2000
    2.6076    2.0058    0.0000 C   0  0  0  0  0  0  0  0  0  0  0  0
    2.6076    3.0087    0.0000 C   0  0  0  0  0  0  0  0  0  0  0  0
    1.7050    1.5044    0.0000 C   0  0  0  0  0  0  0  0  0  0  0  0
    3.4601    1.5044    0.0000 C   0  0  0  0  0  0  0  0  0  0  0  0
    1.7050    0.5015    0.0000 C   0  0  0  0  0  0  0  0  0  0  0  0
    0.8525    2.0058    0.0000 C   0  0  0  0  0  0  0  0  0  0  0  0
    3.4601    0.5015    0.0000 C   0  0  0  0  0  0  0  0  0  0  0  0
    2.6076    0.0000    0.0000 N   0  0  0  0  0  0  0  0  0  0  0  0
    0.8525    0.0000    0.0000 C   0  0  0  0  0  0  0  0  0  0  0  0
    0.0000    1.5044    0.0000 C   0  0  0  0  0  0  0  0  0  0  0  0
    4.3125    0.0000    0.0000 C   0  0  0  0  0  0  0  0  0  0  0  0
    0.0000    0.5015    0.0000 C   0  0  0  0  0  0  0  0  0  0  0  0
  1  2  1  0  0  0  0 
  3  1  2  0  0  0  0 
  1  4  1  0  0  0  0 
  3  5  1  0  0  0  0 
  6  3  1  0  0  0  0 
  4  7  2  0  0  0  0 
  8  5  2  0  0  0  0 
  5  9  1  0  0  0  0 
 10  6  2  0  0  0  0 
  7  8  1  0  0  0  0 
  7 11  1  0  0  0  0 
  9 12  2  0  0  0  0 
 12 10  1  0  0  0  0 
M  END
> <Name>
2,4-DIMETHYLQUINOLINE

> <Source>
NIST2DMolFile

> <Tox>
-2.100

> <CAS>
1198-37-4

$$$$

  CDK

 12 12  0  0  0  0  0  0  0  0999 V2000
    3.8360    0.7510   -0.1211 O   0  0  0  0  0  0  0  0  0  0  0  0
    2.9352   -0.2489    0.0297 C   0  0  0  0  0  0  0  0  0  0  0  0
    3.2458   -1.4190    0.1924 O   0  0  0  0  0  0  0  0  0  0  0  0
    1.5433    0.2810   -0.0379 C   0  0  0  0  0  0  0  0  0  0  0  0
    0.5515   -0.6316    0.0951 C   0  0  0  0  0  0  0  0  0  0  0  0
    1.3475    1.7600   -0.2119 C   0  0  0  0  0  0  0  0  0  0  0  0
   -0.8752   -0.3514    0.0511 C   0  0  0  0  0  0  0  0  0  0  0  0
   -1.5609   -0.0381    1.2247 C   0  0  0  0  0  0  0  0  0  0  0  0
   -1.5575   -0.3954   -1.1646 C   0  0  0  0  0  0  0  0  0  0  0  0
   -2.9289    0.2311    1.1826 C   0  0  0  0  0  0  0  0  0  0  0  0
   -2.9255   -0.1260   -1.2069 C   0  0  0  0  0  0  0  0  0  0  0  0
   -3.6112    0.1872   -0.0332 C   0  0  0  0  0  0  0  0  0  0  0  0
  1  2  1  0  0  0  0 
  3  2  2  0  0  0  0 
  4  2  1  0  0  0  0 
  5  4  2  0  0  0  0 
  4  6  1  0  0  0  0 
  7  5  1  0  0  0  0 
  7  8  2  0  0  0  0 
  7  9  1  0  0  0  0 
  8 10  1  0  0  0  0 
  9 11  2  0  0  0  0 
 10 12  2  0  0  0  0 
 11 12  1  0  0  0  0 
M  END
> <Name>
ALPHA-METHYLCINNAMIC ACID

> <Source>
Chemidplus3DMolFile

> <Tox>
-3.040

> <CAS>
1199-77-5

$$$$

  CDK

 19 21  0  0  0  0  0  0  0  0999 V2000
    0.0000   -1.7151    0.0000 O   0  0  0  0  0  0  0  0  0  0  0  0
    0.0000   -3.0472    0.0000 C   0  0  0  0  0  0  0  0  0  0  0  0
    1.1567   -1.0450    0.0000 C   0  0  0  0  0  0  0  0  0  0  0  0
    1.1567   -3.7013    0.0000 C   0  0  0  0  0  0  0  0  0  0  0  0
    2.3054   -1.7151    0.0000 C   0  0  0  0  0  0  0  0  0  0  0  0
    2.3054   -3.0472    0.0000 C   0  0  0  0  0  0  0  0  0  0  0  0
    1.1567   -5.0335    0.0000 C   0  0  0  0  0  0  0  0  0  0  0  0
    3.4620   -1.0450    0.0000 C   0  0  0  0  0  0  0  0  0  0  0  0
    3.4620   -3.7013    0.0000 C   0  0  0  0  0  0  0  0  0  0  0  0
    4.5948   -1.7151    0.0000 C   0  0  0  0  0  0  0  0  0  0  0  0
    4.5948   -3.0472    0.0000 C   0  0  0  0  0  0  0  0  0  0  0  0
    5.8631   -1.3003    0.0000 C   0  0  0  0  0  0  0  0  0  0  0  0
    5.8631   -3.4461    0.0000 C   0  0  0  0  0  0  0  0  0  0  0  0
    6.6448   -2.3771    0.0000 C   0  0  0  0  0  0  0  0  0  0  0  0
    6.8522   -0.4068    0.0000 C   0  0  0  0  0  0  0  0  0  0  0  0
    5.5919   -0.0000    0.0000 C   0  0  0  0  0  0  0  0  0  0  0  0
    6.8522   -4.3475    0.0000 C   0  0  0  0  0  0  0  0  0  0  0  0
    5.5919   -4.7623    0.0000 C   0  0  0  0  0  0  0  0  0  0  0  0
    7.9770   -2.3771    0.0000 C   0  0  0  0  0  0  0  0  0  0  0  0
  1  2  1  0  0  0  0 
  1  3  1  0  0  0  0 
  2  4  1  0  0  0  0 
  5  3  1  0  0  0  0 
  4  6  1  0  0  0  0 
  4  7  1  0  0  0  0 
  6  5  2  0  0  0  0 
  5  8  1  0  0  0  0 
  6  9  1  0  0  0  0 
  8 10  2  0  0  0  0 
 11  9  2  0  0  0  0 
 10 11  1  0  0  0  0 
 10 12  1  0  0  0  0 
 11 13  1  0  0  0  0 
 14 12  1  0  0  0  0 
 12 15  1  0  0  0  0 
 12 16  1  0  0  0  0 
 13 14  1  0  0  0  0 
 13 17  1  0  0  0  0 
 13 18  1  0  0  0  0 
 14 19  1  0  0  0  0 
M  END
> <Name>
Galaxolide

> <Source>
DSSTox2DMolFile

> <Tox>
-3.264

> <CAS>
1222-05-5

$$$$

  CDK

 13 13  0  0  0  0  0  0  0  0999 V2000
    1.3161   -2.1059    0.0000 O   0  0  0  0  0  0  0  0  0  0  0  0
    0.6017   -1.6934    0.0000 C   0  0  0  0  0  0  0  0  0  0  0  0
   -0.1128   -1.2809    0.0000 N   0  0  0  0  0  0  0  0  0  0  0  0
   -0.1128   -0.4559    0.0000 C   0  0  0  0  0  0  0  0  0  0  0  0
    0.6017   -0.0434    0.0000 C   0  0  0  0  0  0  0  0  0  0  0  0
   -0.8273   -0.0434    0.0000 C   0  0  0  0  0  0  0  0  0  0  0  0
    0.6017    0.7816    0.0000 C   0  0  0  0  0  0  0  0  0  0  0  0
   -0.8273    0.7816    0.0000 C   0  0  0  0  0  0  0  0  0  0  0  0
   -1.5418   -0.4559    0.0000 C   0  0  0  0  0  0  0  0  0  0  0  0
   -0.1128    1.1941    0.0000 C   0  0  0  0  0  0  0  0  0  0  0  0
    1.3161    1.1941    0.0000 N   0  0  0  0  0  0  0  0  0  0  0  0
    2.0306    0.7816    0.0000 C   0  0  0  0  0  0  0  0  0  0  0  0
    2.7451    0.3691    0.0000 O   0  0  0  0  0  0  0  0  0  0  0  0
  1  2  2  0  0  0  0 
  2  3  2  0  0  0  0 
  3  4  1  0  0  0  0 
  4  5  1  0  0  0  0 
  4  6  2  0  0  0  0 
  5  7  2  0  0  0  0 
  8  6  1  0  0  0  0 
  6  9  1  0  0  0  0 
  7 10  1  0  0  0  0 
  7 11  1  0  0  0  0 
 10  8  2  0  0  0  0 
 11 12  2  0  0  0  0 
 12 13  2  0  0  0  0 
M  END
> <Name>
TOLUENE DIISOCYANATE (Mixture of isomers)

> <Source>
Smiles

> <Tox>
-1.870

> <CAS>
1321-38-6

$$$$

  CDK

 10 10  0  0  0  0  0  0  0  0999 V2000
    1.5109   -0.3135   -0.0004 O   0  0  0  0  0  0  0  0  0  0  0  0
    2.8717    0.1314    0.0004 C   0  0  0  0  0  0  0  0  0  0  0  0
    0.5152    0.6419   -0.0007 C   0  0  0  0  0  0  0  0  0  0  0  0
    3.7852   -1.0758    0.0005 C   0  0  0  0  0  0  0  0  0  0  0  0
    0.7810    1.8696   -0.0002 O   0  0  0  0  0  0  0  0  0  0  0  0
   -0.7909    0.0768   -0.0002 C   0  0  0  0  0  0  0  0  0  0  0  0
   -1.8512    0.9266    0.0005 O   0  0  0  0  0  0  0  0  0  0  0  0
   -1.2193   -1.2303   -0.0005 C   0  0  0  0  0  0  0  0  0  0  0  0
   -2.9689    0.1535    0.0005 C   0  0  0  0  0  0  0  0  0  0  0  0
   -2.6338   -1.1804    0.0000 C   0  0  0  0  0  0  0  0  0  0  0  0
  1  2  1  0  0  0  0 
  1  3  1  0  0  0  0 
  2  4  1  0  0  0  0 
  5  3  2  0  0  0  0 
  6  3  1  0  0  0  0 
  7  6  1  0  0  0  0 
  6  8  2  0  0  0  0 
  7  9  1  0  0  0  0 
  8 10  1  0  0  0  0 
 10  9  2  0  0  0  0 
M  END
> <Name>
ETHYL 2-FUROATE

> <Source>
Chemidplus3DMolFile

> <Tox>
-0.393

> <CAS>
1335-40-6

$$$$

  CDK

 18 19  0  0  0  0  0  0  0  0999 V2000
    0.0000    0.0000    0.0000 O   0  0  0  0  0  0  0  0  0  0  0  0
    0.6200    1.1600    0.0000 C   0  0  0  0  0  0  0  0  0  0  0  0
   -0.1200    2.3600    0.0000 C   0  0  0  0  0  0  0  0  0  0  0  0
    2.0200    1.2200    0.0000 C   0  0  0  0  0  0  0  0  0  0  0  0
    0.5400    3.6000    0.0000 C   0  0  0  0  0  0  0  0  0  0  0  0
    2.6800    2.4600    0.0000 C   0  0  0  0  0  0  0  0  0  0  0  0
    1.9400    3.6600    0.0000 C   0  0  0  0  0  0  0  0  0  0  0  0
    2.5800    4.8600    0.0000 N   0  0  0  0  0  0  0  0  0  0  0  0
    3.8200    4.9000    0.0000 N   0  0  0  0  0  0  0  0  0  0  0  0
    4.4600    6.1200    0.0000 C   0  0  0  0  0  0  0  0  0  0  0  0
    3.7200    7.3200    0.0000 C   0  0  0  0  0  0  0  0  0  0  0  0
    5.8600    6.1600    0.0000 C   0  0  0  0  0  0  0  0  0  0  0  0
    4.3800    8.5600    0.0000 C   0  0  0  0  0  0  0  0  0  0  0  0
    6.5200    7.4000    0.0000 C   0  0  0  0  0  0  0  0  0  0  0  0
    5.7800    8.6000    0.0000 C   0  0  0  0  0  0  0  0  0  0  0  0
    6.4400    9.8200    0.0000 N   0  0  0  0  0  0  0  0  0  0  0  0
    5.7400   10.8200    0.0000 O   0  0  0  0  0  0  0  0  0  0  0  0
    7.6600    9.8000    0.0000 O   0  0  0  0  0  0  0  0  0  0  0  0
  1  2  1  0  0  0  0 
  2  3  2  0  0  0  0 
  2  4  1  0  0  0  0 
  3  5  1  0  0  0  0 
  6  4  2  0  0  0  0 
  5  7  2  0  0  0  0 
  7  6  1  0  0  0  0 
  7  8  1  0  0  0  0 
  8  9  2  0  0  0  0 
  9 10  1  0  0  0  0 
 11 10  2  0  0  0  0 
 10 12  1  0  0  0  0 
 13 11  1  0  0  0  0 
 14 12  2  0  0  0  0 
 15 13  2  0  0  0  0 
 15 14  1  0  0  0  0 
 16 15  1  0  0  0  0 
 16 17  2  0  0  0  0 
 16 18  1  0  0  0  0 
M  CHG  1  16   1
M  CHG  1  18  -1
M  END
> <Name>
4-(4-NITROPHENYLAZO)PHENOL

> <Source>
NIH3DMolFile

> <Tox>
-9.523

> <CAS>
1435-60-5

$$$$

  CDK

 13 14  0  0  0  0  0  0  0  0999 V2000
   -1.4136    0.9246   -0.6222 C   0  0  0  0  0  0  0  0  0  0  0  0
   -0.5721   -0.3712   -0.7930 C   0  0  0  0  0  0  0  0  0  0  0  0
   -2.1365    0.9302    0.7328 C   0  0  0  0  0  0  0  0  0  0  0  0
   -0.6833    2.1063   -0.8348 O   0  0  0  0  0  0  0  0  0  0  0  0
   -1.2553   -1.5621   -0.1055 C   0  0  0  0  0  0  0  0  0  0  0  0
    0.8414   -0.2402   -0.2935 C   0  0  0  0  0  0  0  0  0  0  0  0
   -3.1615   -0.1931    0.8001 C   0  0  0  0  0  0  0  0  0  0  0  0
   -2.7629   -1.3941   -0.0493 C   0  0  0  0  0  0  0  0  0  0  0  0
    1.1137    0.1161    1.0302 C   0  0  0  0  0  0  0  0  0  0  0  0
    1.9052   -0.4954   -1.1616 C   0  0  0  0  0  0  0  0  0  0  0  0
    2.4256    0.2114    1.4778 C   0  0  0  0  0  0  0  0  0  0  0  0
    3.2173   -0.3992   -0.7110 C   0  0  0  0  0  0  0  0  0  0  0  0
    3.4800   -0.0468    0.6081 C   0  0  0  0  0  0  0  0  0  0  0  0
  1  2  1  0  0  0  0 
  1  3  1  0  0  0  0 
  1  4  1  0  0  0  0 
  2  5  1  0  0  0  0 
  2  6  1  0  0  0  0 
  7  3  1  0  0  0  0 
  5  8  1  0  0  0  0 
  6  9  1  0  0  0  0 
  6 10  2  0  0  0  0 
  8  7  1  0  0  0  0 
  9 11  2  0  0  0  0 
 12 10  1  0  0  0  0 
 11 13  1  0  0  0  0 
 13 12  2  0  0  0  0 
M  END
> <Name>
Cyclohexanol, 2-phenyl-

> <Source>
DougDB3DMolFile

> <Tox>
-1.435

> <CAS>
1444-64-0

$$$$

  CDK

 11 10  0  0  0  0  0  0  0  0999 V2000
    2.6950   -0.0000    0.0000 C   0  0  0  0  0  0  0  0  0  0  0  0
    3.3348   -1.1663    0.0000 C   0  0  0  0  0  0  0  0  0  0  0  0
    4.6654   -1.2003    0.0000 C   0  0  0  0  0  0  0  0  0  0  0  0
    2.6384   -2.3044    0.0000 O   0  0  0  0  0  0  0  0  0  0  0  0
    1.3362   -2.3270    0.0000 P   0  0  0  0  0  0  0  0  0  0  0  0
    1.3362   -3.6632    0.0000 O   0  0  0  0  0  0  0  0  0  0  0  0
    1.3362   -0.9965    0.0000 O   0  0  0  0  0  0  0  0  0  0  0  0
    0.0000   -2.3270    0.0000 C   0  0  0  0  0  0  0  0  0  0  0  0
    2.4856   -4.3313    0.0000 C   0  0  0  0  0  0  0  0  0  0  0  0
    3.6462   -3.6632    0.0000 C   0  0  0  0  0  0  0  0  0  0  0  0
    2.4856   -5.6618    0.0000 C   0  0  0  0  0  0  0  0  0  0  0  0
  1  2  1  0  0  0  0 
  3  2  1  0  0  0  0 
  2  4  1  0  0  0  0 
  4  5  1  0  0  0  0 
  6  5  1  0  0  0  0 
  7  5  2  0  0  0  0 
  5  8  1  0  0  0  0 
  9  6  1  0  0  0  0 
 10  9  1  0  0  0  0 
 11  9  1  0  0  0  0 
M  END
> <Name>
PHOSPHONIC ACID, METHYL-, DIISOPROPYL ESTER

> <Source>
DSSTox2DMolFile

> <Tox>
-0.558

> <CAS>
1445-75-6

$$$$

  CDK

 14 15  0  0  0  0  0  0  0  0999 V2000
   -0.8652    1.6959   -1.5023 N   0  0  0  0  0  0  0  0  0  0  0  0
   -1.4818    0.7845   -0.6148 C   0  0  0  0  0  0  0  0  0  0  0  0
   -0.7246   -0.0288    0.2282 C   0  0  0  0  0  0  0  0  0  0  0  0
   -2.8743    0.7069   -0.5927 C   0  0  0  0  0  0  0  0  0  0  0  0
    0.7246    0.0289    0.2282 C   0  0  0  0  0  0  0  0  0  0  0  0
   -1.3598   -0.9197    1.0934 C   0  0  0  0  0  0  0  0  0  0  0  0
   -3.5097   -0.1839    0.2725 C   0  0  0  0  0  0  0  0  0  0  0  0
    1.4818   -0.7846   -0.6146 C   0  0  0  0  0  0  0  0  0  0  0  0
    1.3598    0.9199    1.0932 C   0  0  0  0  0  0  0  0  0  0  0  0
   -2.7524   -0.9972    1.1155 C   0  0  0  0  0  0  0  0  0  0  0  0
    0.8653   -1.6963   -1.5020 N   0  0  0  0  0  0  0  0  0  0  0  0
    2.8743   -0.7071   -0.5925 C   0  0  0  0  0  0  0  0  0  0  0  0
    2.7525    0.9974    1.1153 C   0  0  0  0  0  0  0  0  0  0  0  0
    3.5097    0.1840    0.2724 C   0  0  0  0  0  0  0  0  0  0  0  0
  1  2  1  0  0  0  0 
  3  2  1  0  0  0  0 
  2  4  2  0  0  0  0 
  3  5  1  0  0  0  0 
  3  6  2  0  0  0  0 
  4  7  1  0  0  0  0 
  5  8  1  0  0  0  0 
  5  9  2  0  0  0  0 
  6 10  1  0  0  0  0 
 10  7  2  0  0  0  0 
 11  8  1  0  0  0  0 
  8 12  2  0  0  0  0 
  9 13  1  0  0  0  0 
 12 14  1  0  0  0  0 
 13 14  2  0  0  0  0 
M  END
> <Name>
[1,1'-BIPHENYL]-2,2'-DIAMINE

> <Source>
Chemidplus3DMolFile

> <Tox>
-5.570

> <CAS>
1454-80-4

$$$$

  CDK

 22 22  0  0  0  0  0  0  0  0999 V2000
    4.3846    0.1581   -0.1386 C   0  0  0  0  0  0  0  0  0  0  0  0
    4.5945   -1.3283    0.1580 C   0  0  0  0  0  0  0  0  0  0  0  0
    3.5459    0.3513   -1.4045 C   0  0  0  0  0  0  0  0  0  0  0  0
    3.2950   -2.0966    0.4130 C   0  0  0  0  0  0  0  0  0  0  0  0
    3.3282    1.8209   -1.7783 C   0  0  0  0  0  0  0  0  0  0  0  0
    2.4313   -1.5900    1.5735 C   0  0  0  0  0  0  0  0  0  0  0  0
    2.5821    2.6724   -0.7450 C   0  0  0  0  0  0  0  0  0  0  0  0
    1.1602   -2.3941    1.8670 C   0  0  0  0  0  0  0  0  0  0  0  0
    1.1478    2.2047   -0.4827 C   0  0  0  0  0  0  0  0  0  0  0  0
    0.1638   -2.4036    0.7057 C   0  0  0  0  0  0  0  0  0  0  0  0
    0.4528    3.1029    0.5441 C   0  0  0  0  0  0  0  0  0  0  0  0
   -1.1411   -3.1418    1.0332 C   0  0  0  0  0  0  0  0  0  0  0  0
   -0.9998    2.7033    0.8208 C   0  0  0  0  0  0  0  0  0  0  0  0
   -2.1706   -3.1968   -0.1025 C   0  0  0  0  0  0  0  0  0  0  0  0
   -1.6707    3.5580    1.8969 C   0  0  0  0  0  0  0  0  0  0  0  0
   -2.6007   -1.8441   -0.6112 C   0  0  0  0  0  0  0  0  0  0  0  0
   -3.1129    3.1346    2.1280 C   0  0  0  0  0  0  0  0  0  0  0  0
   -3.6948   -1.1981   -0.0354 C   0  0  0  0  0  0  0  0  0  0  0  0
   -1.9043   -1.2383   -1.6572 C   0  0  0  0  0  0  0  0  0  0  0  0
   -4.0927    0.0534   -0.5058 C   0  0  0  0  0  0  0  0  0  0  0  0
   -2.3022    0.0132   -2.1275 C   0  0  0  0  0  0  0  0  0  0  0  0
   -3.3964    0.6590   -1.5516 C   0  0  0  0  0  0  0  0  0  0  0  0
  1  2  1  0  0  0  0 
  1  3  1  0  0  0  0 
  2  4  1  0  0  0  0 
  3  5  1  0  0  0  0 
  4  6  1  0  0  0  0 
  5  7  1  0  0  0  0 
  6  8  1  0  0  0  0 
  7  9  1  0  0  0  0 
  8 10  1  0  0  0  0 
  9 11  1  0  0  0  0 
 10 12  1  0  0  0  0 
 11 13  1  0  0  0  0 
 12 14  1  0  0  0  0 
 13 15  1  0  0  0  0 
 14 16  1  0  0  0  0 
 15 17  1  0  0  0  0 
 16 18  2  0  0  0  0 
 16 19  1  0  0  0  0 
 18 20  1  0  0  0  0 
 19 21  2  0  0  0  0 
 20 22  2  0  0  0  0 
 21 22  1  0  0  0  0 
M  END
> <Name>
N-HEXADECYLBENZENE

> <Source>
Chemidplus3DMolFile

> <Tox>
-5.449

> <CAS>
1459-09-2

$$$$

  CDK

 20 20  0  0  0  0  0  0  0  0999 V2000
    0.0000    2.0988    0.0000 C   0  0  0  0  0  0  0  0  0  0  0  0
    0.0000    0.6996    0.0000 C   0  0  0  0  0  0  0  0  0  0  0  0
    1.2127    2.7984    0.0000 C   0  0  0  0  0  0  0  0  0  0  0  0
    1.2127    0.0000    0.0000 C   0  0  0  0  0  0  0  0  0  0  0  0
    2.4253    2.0988    0.0000 C   0  0  0  0  0  0  0  0  0  0  0  0
    2.4253    0.6996    0.0000 C   0  0  0  0  0  0  0  0  0  0  0  0
    3.6380    2.7984    0.0000 C   0  0  0  0  0  0  0  0  0  0  0  0
    4.8506    2.0988    0.0000 C   0  0  0  0  0  0  0  0  0  0  0  0
    6.0633    2.7984    0.0000 C   0  0  0  0  0  0  0  0  0  0  0  0
    7.2760    2.0988    0.0000 C   0  0  0  0  0  0  0  0  0  0  0  0
    8.4886    2.7984    0.0000 C   0  0  0  0  0  0  0  0  0  0  0  0
    9.7013    2.0988    0.0000 C   0  0  0  0  0  0  0  0  0  0  0  0
   10.9139    2.7984    0.0000 C   0  0  0  0  0  0  0  0  0  0  0  0
   12.1266    2.0988    0.0000 C   0  0  0  0  0  0  0  0  0  0  0  0
   13.3393    2.7984    0.0000 C   0  0  0  0  0  0  0  0  0  0  0  0
   14.5519    2.0988    0.0000 C   0  0  0  0  0  0  0  0  0  0  0  0
   15.7646    2.7984    0.0000 C   0  0  0  0  0  0  0  0  0  0  0  0
   16.9772    2.0988    0.0000 C   0  0  0  0  0  0  0  0  0  0  0  0
   18.1899    2.7984    0.0000 C   0  0  0  0  0  0  0  0  0  0  0  0
   19.4026    2.0988    0.0000 C   0  0  0  0  0  0  0  0  0  0  0  0
  1  2  2  0  0  0  0 
  1  3  1  0  0  0  0 
  2  4  1  0  0  0  0 
  5  3  2  0  0  0  0 
  4  6  2  0  0  0  0 
  6  5  1  0  0  0  0 
  5  7  1  0  0  0  0 
  7  8  1  0  0  0  0 
  8  9  1  0  0  0  0 
  9 10  1  0  0  0  0 
 10 11  1  0  0  0  0 
 11 12  1  0  0  0  0 
 12 13  1  0  0  0  0 
 13 14  1  0  0  0  0 
 14 15  1  0  0  0  0 
 15 16  1  0  0  0  0 
 16 17  1  0  0  0  0 
 17 18  1  0  0  0  0 
 18 19  1  0  0  0  0 
 19 20  1  0  0  0  0 
M  END
> <Name>
1-PHENYLTETRADECANE

> <Source>
IndexNet2DMolFile

> <Tox>
-4.623

> <CAS>
1459-10-5

$$$$

  CDK

 13 13  0  0  0  0  0  0  0  0999 V2000
    3.1810    5.8180    0.2511 O   0  0  0  0  0  0  0  0  0  0  0  0
    4.3302    5.0918    0.2961 C   0  0  0  0  0  0  0  0  0  0  0  0
    5.3487    5.6990    0.0175 O   0  0  0  0  0  0  0  0  0  0  0  0
    4.0983    3.6830    0.6770 C   0  0  0  0  0  0  0  0  0  0  0  0
    2.7630    3.2668    0.8854 C   0  0  0  0  0  0  0  0  0  0  0  0
    5.1256    2.7325    0.8422 C   0  0  0  0  0  0  0  0  0  0  0  0
    1.8476    4.2759    0.7059 O   0  0  0  0  0  0  0  0  0  0  0  0
    2.4600    1.9478    1.2378 C   0  0  0  0  0  0  0  0  0  0  0  0
    6.3994    3.1960    0.6369 O   0  0  0  0  0  0  0  0  0  0  0  0
    4.8171    1.4096    1.1978 C   0  0  0  0  0  0  0  0  0  0  0  0
    0.4856    3.9590    0.8764 C   0  0  0  0  0  0  0  0  0  0  0  0
    3.4957    1.0344    1.3895 C   0  0  0  0  0  0  0  0  0  0  0  0
    7.4651    2.2863    0.7670 C   0  0  0  0  0  0  0  0  0  0  0  0
  1  2  1  0  0  0  0 
  2  3  2  0  0  0  0 
  2  4  1  0  0  0  0 
  5  4  2  0  0  0  0 
  4  6  1  0  0  0  0 
  5  7  1  0  0  0  0 
  8  5  1  0  0  0  0 
  6  9  1  0  0  0  0 
  6 10  2  0  0  0  0 
  7 11  1  0  0  0  0 
 12  8  2  0  0  0  0 
  9 13  1  0  0  0  0 
 10 12  1  0  0  0  0 
M  END
> <Name>
2,6-DIMETHOXYBENZOIC ACID

> <Source>
NIST3DMolFile

> <Tox>
-6.721

> <CAS>
1466-76-8

$$$$

  CDK

  6  5  0  0  0  0  0  0  0  0999 V2000
    1.3291   -0.0000    0.0000 C   0  0  0  0  0  0  0  0  0  0  0  0
    2.0042   -1.1536    0.0000 C   0  0  0  0  0  0  0  0  0  0  0  0
    0.0000   -0.0000    0.0000 Cl  0  0  0  0  0  0  0  0  0  0  0  0
    3.3333   -1.1536    0.0000 C   0  0  0  0  0  0  0  0  0  0  0  0
    3.9872   -0.0000    0.0000 C   0  0  0  0  0  0  0  0  0  0  0  0
    5.3163   -0.0000    0.0000 Cl  0  0  0  0  0  0  0  0  0  0  0  0
  1  2  1  0  0  0  0 
  1  3  1  0  0  0  0 
  2  4  2  0  0  0  0 
  4  5  1  0  0  0  0 
  5  6  1  0  0  0  0 
M  END
> <Name>
1,4-DICHLORO-2-BUTENE(CIS)

> <Source>
DSSTox2DMolFile

> <Tox>
0.612

> <CAS>
1476-11-5

$$$$

  CDK

  3  2  0  0  0  0  0  0  0  0999 V2000
    1.1219   -0.2041    0.0000 F   0  0  0  0  0  0  0  0  0  0  0  0
   -0.0524    0.4397    0.0000 C   0  0  0  0  0  0  0  0  0  0  0  0
   -1.0695   -0.2356    0.0000 O   0  0  0  0  0  0  0  0  0  0  0  0
  1  2  1  0  0  0  0 
  3  2  2  0  0  0  0 
M  END
> <Name>
FORMYL FLUORIDE

> <Source>
Chemidplus3DMolFile

> <Tox>
3.461

> <CAS>
1493-02-3

$$$$

  CDK

  8  7  0  0  0  0  0  0  0  0999 V2000
    1.0219    1.9927    0.0000 O   0  0  0  0  0  0  0  0  0  0  0  0
    1.0219    1.0219    0.0000 S   0  0  0  0  0  0  0  0  0  0  0  0
    1.0219    0.0000    0.0000 O   0  0  0  0  0  0  0  0  0  0  0  0
    0.0000    1.0219    0.0000 O   0  0  0  0  0  0  0  0  0  0  0  0
    1.9927    1.0219    0.0000 C   0  0  0  0  0  0  0  0  0  0  0  0
    1.9927    2.0438    0.0000 F   0  0  0  0  0  0  0  0  0  0  0  0
    3.0146    1.0219    0.0000 F   0  0  0  0  0  0  0  0  0  0  0  0
    1.9927    0.0511    0.0000 F   0  0  0  0  0  0  0  0  0  0  0  0
  1  2  2  0  0  0  0 
  2  3  2  0  0  0  0 
  2  4  1  0  0  0  0 
  2  5  1  0  0  0  0 
  5  6  1  0  0  0  0 
  5  7  1  0  0  0  0 
  5  8  1  0  0  0  0 
M  END
> <Name>
Trifluoromethanesulfonic acid

> <Source>
NIST2DMolFile

> <Tox>
-1.000

> <CAS>
1493-13-6

$$$$

  CDK

 13 13  0  0  0  0  0  0  0  0999 V2000
   -0.1759   -1.7034    0.0743 O   0  0  0  0  0  0  0  0  0  0  0  0
   -0.2337   -0.3425    0.0010 C   0  0  0  0  0  0  0  0  0  0  0  0
   -0.0099   -2.4102   -1.1522 C   0  0  0  0  0  0  0  0  0  0  0  0
    0.9325    0.4175    0.0919 C   0  0  0  0  0  0  0  0  0  0  0  0
   -1.4662    0.2889   -0.1669 C   0  0  0  0  0  0  0  0  0  0  0  0
    0.8664    1.8087    0.0150 C   0  0  0  0  0  0  0  0  0  0  0  0
    2.2299   -0.2208    0.2686 C   0  0  0  0  0  0  0  0  0  0  0  0
   -2.6131   -0.4406   -0.2574 O   0  0  0  0  0  0  0  0  0  0  0  0
   -1.5323    1.6801   -0.2439 C   0  0  0  0  0  0  0  0  0  0  0  0
   -0.3660    2.4399   -0.1529 C   0  0  0  0  0  0  0  0  0  0  0  0
    3.2414    0.4980   -0.2892 O   0  0  0  0  0  0  0  0  0  0  0  0
    2.4254   -1.2911    0.8509 O   0  0  0  0  0  0  0  0  0  0  0  0
   -3.2983   -0.7245    0.9608 C   0  0  0  0  0  0  0  0  0  0  0  0
  1  2  1  0  0  0  0 
  1  3  1  0  0  0  0 
  2  4  2  0  0  0  0 
  2  5  1  0  0  0  0 
  4  6  1  0  0  0  0 
  4  7  1  0  0  0  0 
  8  5  1  0  0  0  0 
  5  9  2  0  0  0  0 
  6 10  2  0  0  0  0 
 11  7  1  0  0  0  0 
 12  7  2  0  0  0  0 
  8 13  1  0  0  0  0 
  9 10  1  0  0  0  0 
M  END
> <Name>
2,3-DIMETHOXYBENZOIC ACID

> <Source>
Chemidplus3DMolFile

> <Tox>
-5.730

> <CAS>
1521-38-6

$$$$

  CDK

 18 19  0  0  0  0  0  0  0  0999 V2000
    0.8629   -0.4091    4.6848 O   0  0  0  0  0  0  0  0  0  0  0  0
    1.8330   -0.9485    4.0993 N   0  0  0  0  0  0  0  0  0  0  0  0
    2.7875   -1.4641    4.7300 O   0  0  0  0  0  0  0  0  0  0  0  0
    1.8509   -0.9767    2.6799 C   0  0  0  0  0  0  0  0  0  0  0  0
    0.8008   -0.4105    1.9570 C   0  0  0  0  0  0  0  0  0  0  0  0
    2.9180   -1.5734    2.0082 C   0  0  0  0  0  0  0  0  0  0  0  0
    0.8176   -0.4410    0.5626 C   0  0  0  0  0  0  0  0  0  0  0  0
    2.9348   -1.6038    0.6137 C   0  0  0  0  0  0  0  0  0  0  0  0
    1.8846   -1.0376   -0.1090 C   0  0  0  0  0  0  0  0  0  0  0  0
    1.9014   -1.0707   -1.5554 C   0  0  0  0  0  0  0  0  0  0  0  0
    0.7021   -1.1132   -2.2661 C   0  0  0  0  0  0  0  0  0  0  0  0
    3.1173   -1.0584   -2.2390 C   0  0  0  0  0  0  0  0  0  0  0  0
    0.7184   -1.1436   -3.6605 C   0  0  0  0  0  0  0  0  0  0  0  0
    3.1337   -1.0887   -3.6335 C   0  0  0  0  0  0  0  0  0  0  0  0
    1.9342   -1.1313   -4.3443 C   0  0  0  0  0  0  0  0  0  0  0  0
    1.9515   -1.1594   -5.7637 N   0  0  0  0  0  0  0  0  0  0  0  0
    0.8616   -1.1952   -6.3847 O   0  0  0  0  0  0  0  0  0  0  0  0
    3.0562   -1.1472   -6.3589 O   0  0  0  0  0  0  0  0  0  0  0  0
  1  2  1  0  0  0  0 
  3  2  2  0  0  0  0 
  2  4  1  0  0  0  0 
  4  5  2  0  0  0  0 
  4  6  1  0  0  0  0 
  7  5  1  0  0  0  0 
  8  6  2  0  0  0  0 
  9  7  2  0  0  0  0 
  9  8  1  0  0  0  0 
  9 10  1  0  0  0  0 
 10 11  2  0  0  0  0 
 10 12  1  0  0  0  0 
 11 13  1  0  0  0  0 
 12 14  2  0  0  0  0 
 15 13  2  0  0  0  0 
 15 14  1  0  0  0  0 
 16 15  1  0  0  0  0 
 17 16  1  0  0  0  0 
 18 16  2  0  0  0  0 
M  CHG  1   1  -1
M  CHG  1   2   1
M  CHG  1  16   1
M  CHG  1  17  -1
M  END
> <Name>
4,4'-DINITROBIPHENYL

> <Source>
Chemidplus3DMolFile

> <Tox>
-7.562

> <CAS>
1528-74-1

$$$$

  CDK

 13 12  0  0  0  0  0  0  0  0999 V2000
   -4.5000    0.3751    0.0000 C   0  0  0  0  0  0  0  0  0  0  0  0
   -2.9999   -0.3751    0.0000 C   0  0  0  0  0  0  0  0  0  0  0  0
   -2.9999   -1.8750    0.0000 C   0  0  0  0  0  0  0  0  0  0  0  0
   -4.5000   -1.1249    0.0000 C   0  0  0  0  0  0  0  0  0  0  0  0
   -1.4999    0.3751    0.0000 C   0  0  0  0  0  0  0  0  0  0  0  0
   -1.4999    1.8750    0.0000 O   0  0  0  0  0  0  0  0  0  0  0  0
    0.0002   -0.3751    0.0000 O   0  0  0  0  0  0  0  0  0  0  0  0
    1.5002    0.3751    0.0000 C   0  0  0  0  0  0  0  0  0  0  0  0
    1.5002    1.8750    0.0000 O   0  0  0  0  0  0  0  0  0  0  0  0
    3.0003   -0.3751    0.0000 C   0  0  0  0  0  0  0  0  0  0  0  0
    4.5000   -1.1249    0.0000 C   0  0  0  0  0  0  0  0  0  0  0  0
    4.5000    0.3751    0.0000 C   0  0  0  0  0  0  0  0  0  0  0  0
    3.0003   -1.8750    0.0000 C   0  0  0  0  0  0  0  0  0  0  0  0
  1  2  1  0  0  0  0 
  2  3  1  0  0  0  0 
  2  4  1  0  0  0  0 
  2  5  1  0  0  0  0 
  5  6  2  0  0  0  0 
  5  7  1  0  0  0  0 
  7  8  1  0  0  0  0 
  8  9  2  0  0  0  0 
  8 10  1  0  0  0  0 
 10 11  1  0  0  0  0 
 10 12  1  0  0  0  0 
 10 13  1  0  0  0  0 
M  END
> <Name>
Trimethylacetic anhydride

> <Source>
IndexNet2DMolFile

> <Tox>
-0.357

> <CAS>
1538-75-6

$$$$

  CDK

  5  4  0  0  0  0  0  0  0  0999 V2000
    2.1833    2.6024    0.0535 S   0  0  0  0  0  0  0  0  0  0  0  0
    0.9710    2.6170    1.3852 C   0  0  0  0  0  0  0  0  0  0  0  0
    3.7703    2.1450    0.8623 C   0  0  0  0  0  0  0  0  0  0  0  0
    3.7503    0.7499    1.4543 C   0  0  0  0  0  0  0  0  0  0  0  0
    4.2212    3.1582    1.8956 C   0  0  0  0  0  0  0  0  0  0  0  0
  1  2  1  0  0  0  0 
  1  3  1  0  0  0  0 
  3  4  1  0  0  0  0 
  3  5  1  0  0  0  0 
M  END
> <Name>
3-METHYL-2-THIABUTANE

> <Source>
NIST3DMolFile

> <Tox>
1.903

> <CAS>
1551-21-9

$$$$

  CDK

  9  9  0  0  0  0  0  0  0  0999 V2000
    1.1520   -1.9953    0.0000 C   0  0  0  0  0  0  0  0  0  0  0  0
    1.1520   -0.6636    0.0000 C   0  0  0  0  0  0  0  0  0  0  0  0
    2.3041   -2.6589    0.0000 C   0  0  0  0  0  0  0  0  0  0  0  0
    0.0000   -2.6589    0.0000 C   0  0  0  0  0  0  0  0  0  0  0  0
    2.3041   -0.0000    0.0000 C   0  0  0  0  0  0  0  0  0  0  0  0
    0.0000   -0.0000    0.0000 O   0  0  0  0  0  0  0  0  0  0  0  0
    3.4561   -1.9953    0.0000 C   0  0  0  0  0  0  0  0  0  0  0  0
    3.4561   -0.6636    0.0000 C   0  0  0  0  0  0  0  0  0  0  0  0
    4.6082   -2.6589    0.0000 Cl  0  0  0  0  0  0  0  0  0  0  0  0
  1  2  2  0  0  0  0 
  1  3  1  0  0  0  0 
  1  4  1  0  0  0  0 
  2  5  1  0  0  0  0 
  2  6  1  0  0  0  0 
  7  3  2  0  0  0  0 
  5  8  2  0  0  0  0 
  8  7  1  0  0  0  0 
  7  9  1  0  0  0  0 
M  END
> <Name>
2-METHYL-4-CHLOROPHENOL

> <Source>
DSSTox2DMolFile

> <Tox>
-1.620

> <CAS>
1570-64-5

$$$$

  CDK

  5  4  0  0  0  0  0  0  0  0999 V2000
    2.8874    0.6005    1.8451 C   0  0  0  0  0  0  0  0  0  0  0  0
    1.4968    1.0387    1.8186 C   0  0  0  0  0  0  0  0  0  0  0  0
    3.7675    0.8611    0.8839 C   0  0  0  0  0  0  0  0  0  0  0  0
    1.0772    2.3055    1.7820 C   0  0  0  0  0  0  0  0  0  0  0  0
    1.9516    3.4968    1.7505 C   0  0  0  0  0  0  0  0  0  0  0  0
  1  2  1  0  0  0  0 
  1  3  2  0  0  0  0 
  2  4  2  0  0  0  0 
  4  5  1  0  0  0  0 
M  END
> <Name>
1,3-PENTADIENE (Z)

> <Source>
NIST3DMolFile

> <Tox>
2.580

> <CAS>
1574-41-0

$$$$

  CDK

 23 23  0  0  0  0  0  0  0  0999 V2000
    5.7594   -0.0000    0.0000 O   0  0  0  0  0  0  0  0  0  0  0  0
    5.7594   -1.3362    0.0000 N   0  0  0  0  0  0  0  0  0  0  0  0
    4.6075   -1.9997    0.0000 C   0  0  0  0  0  0  0  0  0  0  0  0
    6.9113   -1.9997    0.0000 O   0  0  0  0  0  0  0  0  0  0  0  0
    4.6075   -3.3266    0.0000 C   0  0  0  0  0  0  0  0  0  0  0  0
    3.4557   -1.3362    0.0000 C   0  0  0  0  0  0  0  0  0  0  0  0
    3.4557   -3.9901    0.0000 C   0  0  0  0  0  0  0  0  0  0  0  0
    5.7594   -3.9901    0.0000 N   0  0  0  0  0  0  0  0  0  0  0  0
    2.3038   -1.9997    0.0000 C   0  0  0  0  0  0  0  0  0  0  0  0
    2.3038   -3.3266    0.0000 C   0  0  0  0  0  0  0  0  0  0  0  0
    3.4557   -5.3263    0.0000 N   0  0  0  0  0  0  0  0  0  0  0  0
    6.9113   -3.3266    0.0000 C   0  0  0  0  0  0  0  0  0  0  0  0
    5.7594   -5.3263    0.0000 C   0  0  0  0  0  0  0  0  0  0  0  0
    1.1519   -1.3362    0.0000 C   0  0  0  0  0  0  0  0  0  0  0  0
    4.6075   -5.9898    0.0000 O   0  0  0  0  0  0  0  0  0  0  0  0
    2.3038   -5.9898    0.0000 O   0  0  0  0  0  0  0  0  0  0  0  0
    8.0632   -3.9901    0.0000 C   0  0  0  0  0  0  0  0  0  0  0  0
    6.9113   -5.9898    0.0000 C   0  0  0  0  0  0  0  0  0  0  0  0
    1.8154   -0.1843    0.0000 F   0  0  0  0  0  0  0  0  0  0  0  0
    0.4884   -2.4881    0.0000 F   0  0  0  0  0  0  0  0  0  0  0  0
    0.0000   -0.6727    0.0000 F   0  0  0  0  0  0  0  0  0  0  0  0
    9.2151   -3.3266    0.0000 C   0  0  0  0  0  0  0  0  0  0  0  0
    8.0632   -5.3263    0.0000 C   0  0  0  0  0  0  0  0  0  0  0  0
  1  2  2  0  0  0  0 
  2  3  1  0  0  0  0 
  2  4  1  0  0  0  0 
  3  5  2  0  0  0  0 
  3  6  1  0  0  0  0 
  5  7  1  0  0  0  0 
  5  8  1  0  0  0  0 
  9  6  2  0  0  0  0 
  7 10  2  0  0  0  0 
  7 11  1  0  0  0  0 
  8 12  1  0  0  0  0 
  8 13  1  0  0  0  0 
 10  9  1  0  0  0  0 
  9 14  1  0  0  0  0 
 11 15  2  0  0  0  0 
 11 16  1  0  0  0  0 
 12 17  1  0  0  0  0 
 13 18  1  0  0  0  0 
 14 19  1  0  0  0  0 
 14 20  1  0  0  0  0 
 14 21  1  0  0  0  0 
 17 22  1  0  0  0  0 
 18 23  1  0  0  0  0 
M  CHG  1   2   1
M  CHG  1   4  -1
M  CHG  1  11   1
M  CHG  1  16  -1
M  END
> <Name>
TRIFLURALIN

> <Source>
DSSTox2DMolFile

> <Tox>
-4.339

> <CAS>
1582-09-8

$$$$

  CDK

  9  9  0  0  0  0  0  0  0  0999 V2000
    4.6417   -1.1529    0.0000 C   0  0  0  0  0  0  0  0  0  0  0  0
    3.9905   -2.3059    0.0000 C   0  0  0  0  0  0  0  0  0  0  0  0
    3.9905   -0.0000    0.0000 C   0  0  0  0  0  0  0  0  0  0  0  0
    5.9738   -1.1529    0.0000 Br  0  0  0  0  0  0  0  0  0  0  0  0
    2.6583   -2.3059    0.0000 C   0  0  0  0  0  0  0  0  0  0  0  0
    2.6583   -0.0000    0.0000 C   0  0  0  0  0  0  0  0  0  0  0  0
    1.9833   -1.1529    0.0000 C   0  0  0  0  0  0  0  0  0  0  0  0
    0.6571   -1.1529    0.0000 C   0  0  0  0  0  0  0  0  0  0  0  0
    0.0000   -2.3059    0.0000 C   0  0  0  0  0  0  0  0  0  0  0  0
  1  2  2  0  0  0  0 
  1  3  1  0  0  0  0 
  1  4  1  0  0  0  0 
  2  5  1  0  0  0  0 
  6  3  2  0  0  0  0 
  5  7  2  0  0  0  0 
  7  6  1  0  0  0  0 
  7  8  1  0  0  0  0 
  8  9  1  0  0  0  0 
M  END
> <Name>
1-BROMO-4-ETHYLBENZENE

> <Source>
DSSTox2DMolFile

> <Tox>
-0.155

> <CAS>
1585-07-5

$$$$

  CDK

  6  6  0  0  0  0  0  0  0  0999 V2000
    1.6943    3.4323    1.6033 C   0  0  0  0  0  0  0  0  0  0  0  0
    1.1061    2.1294    1.0719 C   0  0  0  0  0  0  0  0  0  0  0  0
    3.1114    3.3176    2.1557 C   0  0  0  0  0  0  0  0  0  0  0  0
    1.5611    0.9054    1.8394 C   0  0  0  0  0  0  0  0  0  0  0  0
    3.9607    2.2947    1.4301 C   0  0  0  0  0  0  0  0  0  0  0  0
    3.3487    0.5914    1.6570 S   0  0  0  0  0  0  0  0  0  0  0  0
  2  1  1  0  0  0  0 
  1  3  1  0  0  0  0 
  4  2  1  0  0  0  0 
  3  5  1  0  0  0  0 
  6  4  1  0  0  0  0 
  5  6  1  0  0  0  0 
M  END
> <Name>
TETRAHYDRO-2H-THIOPYRAN

> <Source>
NIST3DMolFile

> <Tox>
0.895

> <CAS>
1613-51-0

$$$$

  CDK

  8  7  0  0  0  0  0  0  0  0999 V2000
    3.3252    1.5789    2.9399 C   0  0  0  0  0  0  0  0  0  0  0  0
    2.6608    2.6831    2.1782 C   0  0  0  0  0  0  0  0  0  0  0  0
    4.5089    0.9923    2.1820 C   0  0  0  0  0  0  0  0  0  0  0  0
    2.0852    2.3182    0.8453 C   0  0  0  0  0  0  0  0  0  0  0  0
    2.5799    3.9226    2.6609 C   0  0  0  0  0  0  0  0  0  0  0  0
    5.7270    1.9002    2.2283 C   0  0  0  0  0  0  0  0  0  0  0  0
    0.6875    1.7528    0.9792 C   0  0  0  0  0  0  0  0  0  0  0  0
    6.8773    1.3254    1.4333 C   0  0  0  0  0  0  0  0  0  0  0  0
  1  2  1  0  0  0  0 
  1  3  1  0  0  0  0 
  2  4  1  0  0  0  0 
  2  5  2  0  0  0  0 
  3  6  1  0  0  0  0 
  4  7  1  0  0  0  0 
  6  8  1  0  0  0  0 
M  END
> <Name>
2-ETHYL-1-HEXENE

> <Source>
NIST3DMolFile

> <Tox>
1.294

> <CAS>
1632-16-2

$$$$

  CDK

 11 12  0  0  0  0  0  0  0  0999 V2000
    0.1463    2.2191   -0.2820 O   0  0  0  0  0  0  0  0  0  0  0  0
    0.0670    0.8501   -0.6534 C   0  0  0  0  0  0  0  0  0  0  0  0
   -1.2104    0.1953   -0.0519 C   0  0  0  0  0  0  0  0  0  0  0  0
    1.2271   -0.0014   -0.0423 C   0  0  0  0  0  0  0  0  0  0  0  0
   -0.7354   -0.2043    1.3499 C   0  0  0  0  0  0  0  0  0  0  0  0
   -1.4106   -1.1884   -0.7151 C   0  0  0  0  0  0  0  0  0  0  0  0
   -2.4555    1.0603   -0.0773 C   0  0  0  0  0  0  0  0  0  0  0  0
    0.4371   -1.0408    0.8174 C   0  0  0  0  0  0  0  0  0  0  0  0
    2.1827    0.8043    0.8618 C   0  0  0  0  0  0  0  0  0  0  0  0
    2.0778   -0.6430   -1.1497 C   0  0  0  0  0  0  0  0  0  0  0  0
   -0.3260   -2.0512   -0.0574 C   0  0  0  0  0  0  0  0  0  0  0  0
  1  2  1  0  0  0  0 
  3  2  1  0  0  0  0 
  4  2  1  0  0  0  0 
  3  5  1  0  0  0  0 
  3  6  1  0  0  0  0 
  3  7  1  0  0  0  0 
  8  4  1  0  0  0  0 
  4  9  1  0  0  0  0 
  4 10  1  0  0  0  0 
  8  5  1  0  0  0  0 
  6 11  1  0  0  0  0 
  8 11  1  0  0  0  0 
M  END
> <Name>
FENCHYL ALCOHOL

> <Source>
Chemidplus3DMolFile

> <Tox>
-1.449

> <CAS>
1632-73-1

$$$$

  CDK

  6  5  0  0  0  0  0  0  0  0999 V2000
    1.8169   -2.3040    0.0000 C   0  0  0  0  0  0  0  0  0  0  0  0
    1.1503   -1.1537    0.0000 C   0  0  0  0  0  0  0  0  0  0  0  0
    2.3040   -0.4870    0.0000 O   0  0  0  0  0  0  0  0  0  0  0  0
    0.0000   -1.8169    0.0000 C   0  0  0  0  0  0  0  0  0  0  0  0
    0.4870   -0.0000    0.0000 C   0  0  0  0  0  0  0  0  0  0  0  0
    3.4542   -1.1537    0.0000 C   0  0  0  0  0  0  0  0  0  0  0  0
  1  2  1  0  0  0  0 
  2  3  1  0  0  0  0 
  2  4  1  0  0  0  0 
  2  5  1  0  0  0  0 
  3  6  1  0  0  0  0 
M  END
> <Name>
METHYL T-BUTYL ETHER

> <Source>
DSSTox2DMolFile

> <Tox>
2.398

> <CAS>
1634-04-4

$$$$

  CDK

 11 11  0  0  0  0  0  0  0  0999 V2000
    5.5773    3.8864    2.0104 C   0  0  0  0  0  0  0  0  0  0  0  0
    4.4541    3.9023    0.9810 C   0  0  0  0  0  0  0  0  0  0  0  0
    6.3309    2.5659    2.0171 C   0  0  0  0  0  0  0  0  0  0  0  0
    3.2848    3.0766    1.4128 C   0  0  0  0  0  0  0  0  0  0  0  0
    7.3934    2.5387    3.0919 C   0  0  0  0  0  0  0  0  0  0  0  0
    2.3573    3.6004    2.3186 C   0  0  0  0  0  0  0  0  0  0  0  0
    3.1104    1.7841    0.9194 C   0  0  0  0  0  0  0  0  0  0  0  0
    1.2649    2.8494    2.7259 C   0  0  0  0  0  0  0  0  0  0  0  0
    2.0230    1.0140    1.3148 C   0  0  0  0  0  0  0  0  0  0  0  0
    1.1001    1.5523    2.2197 C   0  0  0  0  0  0  0  0  0  0  0  0
    0.0000    0.8677    2.6612 O   0  0  0  0  0  0  0  0  0  0  0  0
  1  2  1  0  0  0  0 
  1  3  1  0  0  0  0 
  2  4  1  0  0  0  0 
  3  5  1  0  0  0  0 
  6  4  2  0  0  0  0 
  4  7  1  0  0  0  0 
  8  6  1  0  0  0  0 
  7  9  2  0  0  0  0 
 10  8  2  0  0  0  0 
  9 10  1  0  0  0  0 
 10 11  1  0  0  0  0 
M  END
> <Name>
P-BUTYLPHENOL

> <Source>
NIST3DMolFile

> <Tox>
-2.654

> <CAS>
1638-22-8

$$$$

  CDK

  7  7  0  0  0  0  0  0  0  0999 V2000
    3.3105    0.6217    1.8100 C   0  0  0  0  0  0  0  0  0  0  0  0
    2.9506    2.0920    1.9767 C   0  0  0  0  0  0  0  0  0  0  0  0
    4.2257    2.8981    2.2075 C   0  0  0  0  0  0  0  0  0  0  0  0
    2.1984    2.6242    0.7439 C   0  0  0  0  0  0  0  0  0  0  0  0
    1.9701    2.2964    3.1453 C   0  0  0  0  0  0  0  0  0  0  0  0
    1.1923    3.6534    1.2486 C   0  0  0  0  0  0  0  0  0  0  0  0
    1.0469    3.4458    2.7543 C   0  0  0  0  0  0  0  0  0  0  0  0
  1  2  1  0  0  0  0 
  2  3  1  0  0  0  0 
  4  2  1  0  0  0  0 
  2  5  1  0  0  0  0 
  6  4  1  0  0  0  0 
  5  7  1  0  0  0  0 
  7  6  1  0  0  0  0 
M  END
> <Name>
1,1-DIMETHYLCYCLOPENTANE

> <Source>
NIST3DMolFile

> <Tox>
1.882

> <CAS>
1638-26-2

$$$$

  CDK

  8  7  0  0  0  0  0  0  0  0999 V2000
    0.0000    0.0000    0.0000 C   0  0  0  0  0  0  0  0  0  0  0  0
    0.8723    0.4618    0.0000 C   0  0  0  0  0  0  0  0  0  0  0  0
    1.7445    0.0000    0.0000 C   0  0  0  0  0  0  0  0  0  0  0  0
    2.6681    0.4618    0.0000 C   0  0  0  0  0  0  0  0  0  0  0  0
    3.5404    0.0000    0.0000 C   0  0  0  0  0  0  0  0  0  0  0  0
    4.4640    0.4618    0.0000 C   0  0  0  0  0  0  0  0  0  0  0  0
    5.3362    0.0000    0.0000 C   0  0  0  0  0  0  0  0  0  0  0  0
    6.2085    0.4618    0.0000 S   0  0  0  0  0  0  0  0  0  0  0  0
  1  2  1  0  0  0  0 
  2  3  1  0  0  0  0 
  3  4  1  0  0  0  0 
  4  5  1  0  0  0  0 
  5  6  1  0  0  0  0 
  6  7  1  0  0  0  0 
  7  8  1  0  0  0  0 
M  END
> <Name>
1-HEPTANETHIOL

> <Source>
NIST2DMolFile

> <Tox>
0.117

> <CAS>
1639-09-4

$$$$

  CDK

  7  7  0  0  0  0  0  0  0  0999 V2000
    5.5210    1.6715    1.5677 C   0  0  0  0  0  0  0  0  0  0  0  0
    4.3996    1.8456    2.5673 C   0  0  0  0  0  0  0  0  0  0  0  0
    3.1525    1.0626    2.1760 C   0  0  0  0  0  0  0  0  0  0  0  0
    2.4666    1.6092    0.9197 C   0  0  0  0  0  0  0  0  0  0  0  0
    2.0779    1.1085    3.2663 C   0  0  0  0  0  0  0  0  0  0  0  0
    0.9807    1.3011    1.0750 C   0  0  0  0  0  0  0  0  0  0  0  0
    0.7320    1.0098    2.5543 C   0  0  0  0  0  0  0  0  0  0  0  0
  1  2  1  0  0  0  0 
  2  3  1  0  0  0  0 
  4  3  1  0  0  0  0 
  3  5  1  0  0  0  0 
  6  4  1  0  0  0  0 
  5  7  1  0  0  0  0 
  7  6  1  0  0  0  0 
M  END
> <Name>
ETHYLCYCLOPENTANE

> <Source>
NIST3DMolFile

> <Tox>
1.600

> <CAS>
1640-89-7

$$$$

  CDK

 13 12  0  0  0  0  0  0  0  0999 V2000
    7.0040   -1.1814    0.0000 C   0  0  0  0  0  0  0  0  0  0  0  0
    7.0040   -2.5597    0.0000 O   0  0  0  0  0  0  0  0  0  0  0  0
    5.8413   -0.5438    0.0000 O   0  0  0  0  0  0  0  0  0  0  0  0
    8.1947   -0.5063    0.0000 N   0  0  0  0  0  0  0  0  0  0  0  0
    4.6506   -1.1814    0.0000 N   0  0  0  0  0  0  0  0  0  0  0  0
    9.3761   -1.1814    0.0000 C   0  0  0  0  0  0  0  0  0  0  0  0
    3.5067   -0.5063    0.0000 C   0  0  0  0  0  0  0  0  0  0  0  0
    2.3159   -1.1814    0.0000 C   0  0  0  0  0  0  0  0  0  0  0  0
    1.1158   -1.8565    0.0000 S   0  0  0  0  0  0  0  0  0  0  0  0
    1.6596   -0.0000    0.0000 C   0  0  0  0  0  0  0  0  0  0  0  0
    2.9910   -2.3815    0.0000 C   0  0  0  0  0  0  0  0  0  0  0  0
    0.0000   -1.1814    0.0000 C   0  0  0  0  0  0  0  0  0  0  0  0
    1.1064   -2.9254    0.0000 O   0  0  0  0  0  0  0  0  0  0  0  0
  1  2  2  0  0  0  0 
  1  3  1  0  0  0  0 
  1  4  1  0  0  0  0 
  5  3  1  0  0  0  0 
  4  6  1  0  0  0  0 
  5  7  2  0  0  0  0 
  7  8  1  0  0  0  0 
  8  9  1  0  0  0  0 
  8 10  1  0  0  0  0 
  8 11  1  0  0  0  0 
  9 12  1  0  0  0  0 
  9 13  2  0  0  0  0 
M  END
> <Name>
ALDICARB SULFOXIDE

> <Source>
DSSTox2DMolFile

> <Tox>
-4.000

> <CAS>
1646-87-3

$$$$

  CDK

 14 13  0  0  0  0  0  0  0  0999 V2000
    4.6040   -2.6459    0.0000 C   0  0  0  0  0  0  0  0  0  0  0  0
    5.7773   -1.9905    0.0000 C   0  0  0  0  0  0  0  0  0  0  0  0
    3.4712   -1.9905    0.0000 N   0  0  0  0  0  0  0  0  0  0  0  0
    5.1057   -0.8496    0.0000 C   0  0  0  0  0  0  0  0  0  0  0  0
    6.4408   -3.1476    0.0000 C   0  0  0  0  0  0  0  0  0  0  0  0
    6.9344   -1.3189    0.0000 S   0  0  0  0  0  0  0  0  0  0  0  0
    2.3142   -2.6459    0.0000 O   0  0  0  0  0  0  0  0  0  0  0  0
    6.2628   -0.1780    0.0000 O   0  0  0  0  0  0  0  0  0  0  0  0
    7.5898   -2.4760    0.0000 O   0  0  0  0  0  0  0  0  0  0  0  0
    8.0914   -0.6554    0.0000 C   0  0  0  0  0  0  0  0  0  0  0  0
    1.1571   -1.9905    0.0000 C   0  0  0  0  0  0  0  0  0  0  0  0
    0.0000   -2.6459    0.0000 O   0  0  0  0  0  0  0  0  0  0  0  0
    1.1571   -0.6554    0.0000 N   0  0  0  0  0  0  0  0  0  0  0  0
    2.3142   -0.0000    0.0000 C   0  0  0  0  0  0  0  0  0  0  0  0
  1  2  1  0  0  0  0 
  1  3  2  0  0  0  0 
  2  4  1  0  0  0  0 
  2  5  1  0  0  0  0 
  2  6  1  0  0  0  0 
  3  7  1  0  0  0  0 
  6  8  2  0  0  0  0 
  6  9  2  0  0  0  0 
  6 10  1  0  0  0  0 
  7 11  1  0  0  0  0 
 11 12  2  0  0  0  0 
 11 13  1  0  0  0  0 
 13 14  1  0  0  0  0 
M  END
> <Name>
ALDICARB SULFONE

> <Source>
DSSTox2DMolFile

> <Tox>
-4.046

> <CAS>
1646-88-4

$$$$

  CDK

  6  5  0  0  0  0  0  0  0  0999 V2000
    1.9873   -1.3304    0.0000 C   0  0  0  0  0  0  0  0  0  0  0  0
    0.6569   -1.3304    0.0000 C   0  0  0  0  0  0  0  0  0  0  0  0
    3.3177   -1.3304    0.0000 Cl  0  0  0  0  0  0  0  0  0  0  0  0
    1.9873   -2.6608    0.0000 F   0  0  0  0  0  0  0  0  0  0  0  0
    1.9873   -0.0000    0.0000 F   0  0  0  0  0  0  0  0  0  0  0  0
    0.0000   -0.1758    0.0000 Cl  0  0  0  0  0  0  0  0  0  0  0  0
  1  2  1  0  0  0  0 
  1  3  1  0  0  0  0 
  1  4  1  0  0  0  0 
  1  5  1  0  0  0  0 
  2  6  1  0  0  0  0 
M  END
> <Name>
1,2-DICHLORO-1,1-DIFLUOROETHANE

> <Source>
DSSTox2DMolFile

> <Tox>
2.531

> <CAS>
1649-08-7

$$$$

  CDK

  8  8  0  0  0  0  0  0  0  0999 V2000
    0.4516    4.6732    1.9214 C   0  0  0  0  0  0  0  0  0  0  0  0
    1.9597    4.6988    1.7991 C   0  0  0  0  0  0  0  0  0  0  0  0
    2.5612    3.3207    2.0720 C   0  0  0  0  0  0  0  0  0  0  0  0
    4.0864    3.3878    2.1238 C   0  0  0  0  0  0  0  0  0  0  0  0
    2.1229    2.3217    1.0004 C   0  0  0  0  0  0  0  0  0  0  0  0
    4.6771    2.0117    2.3918 C   0  0  0  0  0  0  0  0  0  0  0  0
    2.6993    0.9438    1.2772 C   0  0  0  0  0  0  0  0  0  0  0  0
    4.2178    1.0013    1.3517 C   0  0  0  0  0  0  0  0  0  0  0  0
  1  2  1  0  0  0  0 
  2  3  1  0  0  0  0 
  3  4  1  0  0  0  0 
  5  3  1  0  0  0  0 
  4  6  1  0  0  0  0 
  7  5  1  0  0  0  0 
  6  8  1  0  0  0  0 
  8  7  1  0  0  0  0 
M  END
> <Name>
ETHYLCYCLOHEXANE

> <Source>
NIST3DMolFile

> <Tox>
1.107

> <CAS>
1678-91-7

$$$$

  CDK

  9  9  0  0  0  0  0  0  0  0999 V2000
    5.4201    1.9940    2.2180 C   0  0  0  0  0  0  0  0  0  0  0  0
    4.1589    1.9855    1.3674 C   0  0  0  0  0  0  0  0  0  0  0  0
    6.4573    1.0303    1.6909 C   0  0  0  0  0  0  0  0  0  0  0  0
    3.1904    3.0878    1.7947 C   0  0  0  0  0  0  0  0  0  0  0  0
    3.7799    4.4683    1.5167 C   0  0  0  0  0  0  0  0  0  0  0  0
    1.8426    2.9302    1.0860 C   0  0  0  0  0  0  0  0  0  0  0  0
    2.9086    5.5708    2.1020 C   0  0  0  0  0  0  0  0  0  0  0  0
    1.0905    4.2509    0.9669 C   0  0  0  0  0  0  0  0  0  0  0  0
    1.4298    5.2002    2.1027 C   0  0  0  0  0  0  0  0  0  0  0  0
  1  2  1  0  0  0  0 
  1  3  1  0  0  0  0 
  2  4  1  0  0  0  0 
  5  4  1  0  0  0  0 
  4  6  1  0  0  0  0 
  7  5  1  0  0  0  0 
  6  8  1  0  0  0  0 
  9  7  1  0  0  0  0 
  8  9  1  0  0  0  0 
M  END
> <Name>
N-PROPYLCYCLOHEXANE

> <Source>
NIST3DMolFile

> <Tox>
0.622

> <CAS>
1678-92-8

$$$$

  CDK

 10 10  0  0  0  0  0  0  0  0999 V2000
    2.3584    1.7244    3.2414 C   0  0  0  0  0  0  0  0  0  0  0  0
    3.4364    0.8941    2.5584 C   0  0  0  0  0  0  0  0  0  0  0  0
    1.8759    2.8852    2.3828 C   0  0  0  0  0  0  0  0  0  0  0  0
    4.7145    1.6935    2.2985 C   0  0  0  0  0  0  0  0  0  0  0  0
    0.8972    2.4537    1.3143 C   0  0  0  0  0  0  0  0  0  0  0  0
    5.4735    1.9810    3.5983 C   0  0  0  0  0  0  0  0  0  0  0  0
    5.6142    0.9619    1.3067 C   0  0  0  0  0  0  0  0  0  0  0  0
    6.9698    2.1646    3.3773 C   0  0  0  0  0  0  0  0  0  0  0  0
    6.8036    1.8202    0.8939 C   0  0  0  0  0  0  0  0  0  0  0  0
    7.2672    2.7496    2.0088 C   0  0  0  0  0  0  0  0  0  0  0  0
  1  2  1  0  0  0  0 
  1  3  1  0  0  0  0 
  2  4  1  0  0  0  0 
  3  5  1  0  0  0  0 
  4  6  1  0  0  0  0 
  7  4  1  0  0  0  0 
  6  8  1  0  0  0  0 
  9  7  1  0  0  0  0 
 10  8  1  0  0  0  0 
 10  9  1  0  0  0  0 
M  END
> <Name>
BUTYLCYCLOHEXANE

> <Source>
NIST3DMolFile

> <Tox>
0.117

> <CAS>
1678-93-9

$$$$

  CDK

 10 10  0  0  0  0  0  0  0  0999 V2000
    5.7814    1.9387    2.0021 C   0  0  0  0  0  0  0  0  0  0  0  0
    4.4495    1.4230    2.5515 C   0  0  0  0  0  0  0  0  0  0  0  0
    6.3070    3.0836    2.8530 C   0  0  0  0  0  0  0  0  0  0  0  0
    6.7986    0.8118    1.9410 C   0  0  0  0  0  0  0  0  0  0  0  0
    3.3410    2.4743    2.4695 C   0  0  0  0  0  0  0  0  0  0  0  0
    2.1644    2.0808    3.3582 C   0  0  0  0  0  0  0  0  0  0  0  0
    2.8753    2.6911    1.0253 C   0  0  0  0  0  0  0  0  0  0  0  0
    1.1227    3.1900    3.4305 C   0  0  0  0  0  0  0  0  0  0  0  0
    1.4236    3.1440    0.9367 C   0  0  0  0  0  0  0  0  0  0  0  0
    1.0270    3.9866    2.1349 C   0  0  0  0  0  0  0  0  0  0  0  0
  1  2  1  0  0  0  0 
  1  3  1  0  0  0  0 
  1  4  1  0  0  0  0 
  2  5  1  0  0  0  0 
  5  6  1  0  0  0  0 
  7  5  1  0  0  0  0 
  6  8  1  0  0  0  0 
  9  7  1  0  0  0  0 
  8 10  1  0  0  0  0 
  9 10  1  0  0  0  0 
M  END
> <Name>
ISOBUTYLCYCLOHEXANE

> <Source>
NIST3DMolFile

> <Tox>
0.684

> <CAS>
1678-98-4

$$$$

  CDK

  6  6  0  0  0  0  0  0  0  0999 V2000
    0.0196    2.6366    1.3659 S   0  0  0  0  0  0  0  0  0  0  0  0
    1.7355    2.1451    1.7407 C   0  0  0  0  0  0  0  0  0  0  0  0
    2.8098    2.9983    1.0656 C   0  0  0  0  0  0  0  0  0  0  0  0
    2.0821    0.7001    1.3789 C   0  0  0  0  0  0  0  0  0  0  0  0
    4.0495    2.1154    0.9602 C   0  0  0  0  0  0  0  0  0  0  0  0
    3.5852    0.6683    1.1142 C   0  0  0  0  0  0  0  0  0  0  0  0
  1  2  1  0  0  0  0 
  2  3  1  0  0  0  0 
  4  2  1  0  0  0  0 
  3  5  1  0  0  0  0 
  6  4  1  0  0  0  0 
  5  6  1  0  0  0  0 
M  END
> <Name>
CYCLOPENTANETHIOL

> <Source>
NIST3DMolFile

> <Tox>
1.057

> <CAS>
1679-07-8

$$$$

  CDK

 11 13  0  0  0  0  0  0  0  0999 V2000
    0.7526   -1.0543   -3.6982 O   0  0  0  0  0  0  0  0  0  0  0  0
   -0.3266   -1.7597   -3.0841 C   0  0  0  0  0  0  0  0  0  0  0  0
    1.0540   -2.3610   -3.1856 C   0  0  0  0  0  0  0  0  0  0  0  0
   -0.7188   -1.3158   -1.6906 C   0  0  0  0  0  0  0  0  0  0  0  0
   -1.3874   -2.1909   -4.0223 C   0  0  0  0  0  0  0  0  0  0  0  0
    1.8603   -2.3898   -1.9087 C   0  0  0  0  0  0  0  0  0  0  0  0
   -0.4100   -2.4089   -0.6008 C   0  0  0  0  0  0  0  0  0  0  0  0
    0.3667   -0.4807   -0.9156 C   0  0  0  0  0  0  0  0  0  0  0  0
    1.0560   -1.8655   -0.6938 C   0  0  0  0  0  0  0  0  0  0  0  0
   -0.5958   -3.8449   -1.0644 C   0  0  0  0  0  0  0  0  0  0  0  0
   -1.1026   -2.2494    0.7366 C   0  0  0  0  0  0  0  0  0  0  0  0
  1  2  1  0  0  0  0 
  1  3  1  0  0  0  0 
  4  2  1  0  0  0  0 
  2  3  1  0  0  0  0 
  2  5  1  0  0  0  0 
  3  6  1  0  0  0  0 
  4  7  1  0  0  0  0 
  4  8  1  0  0  0  0 
  9  6  1  0  0  0  0 
  7  9  1  0  0  0  0 
  7 10  1  0  0  0  0 
  7 11  1  0  0  0  0 
  9  8  1  0  0  0  0 
M  END
> <Name>
alpha-Pinene Oxide

> <Source>
Chemidplus3DMolFile

> <Tox>
-0.087

> <CAS>
1686-14-2

$$$$

  CDK

 15 16  0  0  0  0  0  0  0  0999 V2000
    3.3219   -3.4516    0.0000 C   0  0  0  0  0  0  0  0  0  0  0  0
    1.9952   -3.4516    0.0000 C   0  0  0  0  0  0  0  0  0  0  0  0
    3.9903   -2.3044    0.0000 C   0  0  0  0  0  0  0  0  0  0  0  0
    1.3268   -2.3044    0.0000 C   0  0  0  0  0  0  0  0  0  0  0  0
    3.3219   -1.1472    0.0000 C   0  0  0  0  0  0  0  0  0  0  0  0
    5.3171   -2.3044    0.0000 N   0  0  0  0  0  0  0  0  0  0  0  0
    0.0000   -2.3044    0.0000 O   0  0  0  0  0  0  0  0  0  0  0  0
    1.9952   -1.1472    0.0000 C   0  0  0  0  0  0  0  0  0  0  0  0
    5.9855   -1.1472    0.0000 N   0  0  0  0  0  0  0  0  0  0  0  0
    7.3122   -1.1472    0.0000 C   0  0  0  0  0  0  0  0  0  0  0  0
    7.9806   -0.0000    0.0000 C   0  0  0  0  0  0  0  0  0  0  0  0
    7.9806   -2.3044    0.0000 C   0  0  0  0  0  0  0  0  0  0  0  0
    9.3074   -0.0000    0.0000 C   0  0  0  0  0  0  0  0  0  0  0  0
    9.3074   -2.3044    0.0000 C   0  0  0  0  0  0  0  0  0  0  0  0
    9.9758   -1.1472    0.0000 C   0  0  0  0  0  0  0  0  0  0  0  0
  1  2  2  0  0  0  0 
  1  3  1  0  0  0  0 
  2  4  1  0  0  0  0 
  5  3  2  0  0  0  0 
  3  6  1  0  0  0  0 
  4  7  1  0  0  0  0 
  4  8  2  0  0  0  0 
  8  5  1  0  0  0  0 
  6  9  2  0  0  0  0 
  9 10  1  0  0  0  0 
 10 11  2  0  0  0  0 
 10 12  1  0  0  0  0 
 11 13  1  0  0  0  0 
 14 12  2  0  0  0  0 
 13 15  2  0  0  0  0 
 15 14  1  0  0  0  0 
M  END
> <Name>
P-PHENYLAZOPHENOL

> <Source>
DSSTox2DMolFile

> <Tox>
-6.636

> <CAS>
1689-82-3

$$$$

  CDK

 20 20  0  0  0  0  0  0  0  0999 V2000
    6.9309   -2.0228    0.0000 C   0  0  0  0  0  0  0  0  0  0  0  0
    6.9309   -3.3465    0.0000 O   0  0  0  0  0  0  0  0  0  0  0  0
    5.7708   -1.3237    0.0000 O   0  0  0  0  0  0  0  0  0  0  0  0
    8.0910   -1.3237    0.0000 C   0  0  0  0  0  0  0  0  0  0  0  0
    4.6256   -2.0228    0.0000 C   0  0  0  0  0  0  0  0  0  0  0  0
    9.2511   -2.0228    0.0000 C   0  0  0  0  0  0  0  0  0  0  0  0
    4.6256   -3.3465    0.0000 C   0  0  0  0  0  0  0  0  0  0  0  0
    3.4655   -1.3237    0.0000 C   0  0  0  0  0  0  0  0  0  0  0  0
   10.3964   -1.3237    0.0000 C   0  0  0  0  0  0  0  0  0  0  0  0
    3.4655   -4.0158    0.0000 C   0  0  0  0  0  0  0  0  0  0  0  0
    5.7708   -4.0158    0.0000 Br  0  0  0  0  0  0  0  0  0  0  0  0
    2.3053   -2.0228    0.0000 C   0  0  0  0  0  0  0  0  0  0  0  0
    3.4655   -0.0000    0.0000 Br  0  0  0  0  0  0  0  0  0  0  0  0
   11.5119   -1.9781    0.0000 C   0  0  0  0  0  0  0  0  0  0  0  0
    2.3053   -3.3465    0.0000 C   0  0  0  0  0  0  0  0  0  0  0  0
   12.6274   -1.3237    0.0000 C   0  0  0  0  0  0  0  0  0  0  0  0
    1.1452   -4.0158    0.0000 C   0  0  0  0  0  0  0  0  0  0  0  0
   13.7577   -1.9781    0.0000 C   0  0  0  0  0  0  0  0  0  0  0  0
    0.0000   -4.6702    0.0000 N   0  0  0  0  0  0  0  0  0  0  0  0
   14.8732   -1.3237    0.0000 C   0  0  0  0  0  0  0  0  0  0  0  0
  1  2  2  0  0  0  0 
  1  3  1  0  0  0  0 
  1  4  1  0  0  0  0 
  3  5  1  0  0  0  0 
  4  6  1  0  0  0  0 
  5  7  1  0  0  0  0 
  5  8  2  0  0  0  0 
  6  9  1  0  0  0  0 
  7 10  2  0  0  0  0 
  7 11  1  0  0  0  0 
  8 12  1  0  0  0  0 
  8 13  1  0  0  0  0 
  9 14  1  0  0  0  0 
 15 10  1  0  0  0  0 
 15 12  2  0  0  0  0 
 14 16  1  0  0  0  0 
 17 15  1  0  0  0  0 
 16 18  1  0  0  0  0 
 19 17  3  0  0  0  0 
 18 20  1  0  0  0  0 
M  END
> <Name>
BROMOXYNIL OCTANOATE

> <Source>
DSSTox2DMolFile

> <Tox>
-5.319

> <CAS>
1689-99-2

$$$$

  CDK

 11 11  0  0  0  0  0  0  0  0999 V2000
    2.0049   -3.4498    0.0000 N   0  0  0  0  0  0  0  0  0  0  0  0
    0.7012   -3.4498    0.0000 C   0  0  0  0  0  0  0  0  0  0  0  0
    2.7203   -2.3061    0.0000 C   0  0  0  0  0  0  0  0  0  0  0  0
    0.0000   -2.3061    0.0000 C   0  0  0  0  0  0  0  0  0  0  0  0
    0.0471   -4.6122    0.0000 Cl  0  0  0  0  0  0  0  0  0  0  0  0
    2.0049   -1.1625    0.0000 C   0  0  0  0  0  0  0  0  0  0  0  0
    4.0522   -2.3061    0.0000 C   0  0  0  0  0  0  0  0  0  0  0  0
    0.7012   -1.1625    0.0000 C   0  0  0  0  0  0  0  0  0  0  0  0
    2.6732   -0.0000    0.0000 Cl  0  0  0  0  0  0  0  0  0  0  0  0
    4.7064   -3.4498    0.0000 O   0  0  0  0  0  0  0  0  0  0  0  0
    4.7064   -1.1625    0.0000 O   0  0  0  0  0  0  0  0  0  0  0  0
  1  2  2  0  0  0  0 
  1  3  1  0  0  0  0 
  2  4  1  0  0  0  0 
  2  5  1  0  0  0  0 
  3  6  2  0  0  0  0 
  3  7  1  0  0  0  0 
  4  8  2  0  0  0  0 
  6  8  1  0  0  0  0 
  6  9  1  0  0  0  0 
  7 10  2  0  0  0  0 
  7 11  1  0  0  0  0 
M  END
> <Name>
3,6-DICHLOROPICOLINIC ACID

> <Source>
DSSTox2DMolFile

> <Tox>
-4.921

> <CAS>
1702-17-6

$$$$

  CDK

  5  5  0  0  0  0  0  0  0  0999 V2000
    2.4078    0.8609    0.8992 C   0  0  0  0  0  0  0  0  0  0  0  0
    1.0691    0.8775    0.8952 C   0  0  0  0  0  0  0  0  0  0  0  0
    2.9199    2.2726    0.9038 C   0  0  0  0  0  0  0  0  0  0  0  0
    0.5920    2.3014    0.8968 C   0  0  0  0  0  0  0  0  0  0  0  0
    1.7664    3.1244    0.9016 O   0  0  0  0  0  0  0  0  0  0  0  0
  1  2  2  0  0  0  0 
  3  1  1  0  0  0  0 
  2  4  1  0  0  0  0 
  5  3  1  0  0  0  0 
  4  5  1  0  0  0  0 
M  END
> <Name>
2,5-DIHYDROFURAN

> <Source>
NIST3DMolFile

> <Tox>
2.199

> <CAS>
1708-29-8

$$$$

  CDK

  7  6  0  0  0  0  0  0  0  0999 V2000
    1.7335    1.4859    0.0000 O   0  0  0  0  0  0  0  0  0  0  0  0
    0.8915    0.9906    0.0000 C   0  0  0  0  0  0  0  0  0  0  0  0
    2.5755    1.0401    0.0000 N   0  0  0  0  0  0  0  0  0  0  0  0
    0.8915    0.0000    0.0000 C   0  0  0  0  0  0  0  0  0  0  0  0
    0.0000    1.4859    0.0000 C   0  0  0  0  0  0  0  0  0  0  0  0
    2.5755    0.0000    0.0000 O   0  0  0  0  0  0  0  0  0  0  0  0
    3.4670    1.5354    0.0000 O   0  0  0  0  0  0  0  0  0  0  0  0
  1  2  1  0  0  0  0 
  1  3  1  0  0  0  0 
  2  4  1  0  0  0  0 
  2  5  1  0  0  0  0 
  3  6  2  0  0  0  0 
  3  7  2  0  0  0  0 
M  END
> <Name>
ISOPROPYL NITRATE

> <Source>
NIST2DMolFile

> <Tox>
1.533

> <CAS>
1712-64-7

$$$$

  CDK

  5  4  0  0  0  0  0  0  0  0999 V2000
    0.0000   -1.3300    0.0000 F   0  0  0  0  0  0  0  0  0  0  0  0
    1.3300   -1.3300    0.0000 C   0  0  0  0  0  0  0  0  0  0  0  0
    1.3300   -2.6600    0.0000 Cl  0  0  0  0  0  0  0  0  0  0  0  0
    2.6600   -1.3300    0.0000 C   0  0  0  0  0  0  0  0  0  0  0  0
    1.3300   -0.0000    0.0000 Cl  0  0  0  0  0  0  0  0  0  0  0  0
  1  2  1  0  0  0  0 
  3  2  1  0  0  0  0 
  2  4  1  0  0  0  0 
  2  5  1  0  0  0  0 
M  END
> <Name>
1,1-DICHLOROFLUOROETHANE

> <Source>
DSSTox2DMolFile

> <Tox>
2.778

> <CAS>
1717-00-6

$$$$

  CDK

 14 16  0  0  0  0  0  0  0  0999 V2000
    1.3227    4.4715    1.0437 C   0  0  0  0  0  0  0  0  0  0  0  0
    1.9103    3.2473    1.6424 C   0  0  0  0  0  0  0  0  0  0  0  0
    3.2796    3.0259    1.6435 C   0  0  0  0  0  0  0  0  0  0  0  0
    1.0852    2.2793    2.2344 C   0  0  0  0  0  0  0  0  0  0  0  0
    3.8166    1.8538    2.2276 C   0  0  0  0  0  0  0  0  0  0  0  0
    4.3838    3.8818    1.0878 C   0  0  0  0  0  0  0  0  0  0  0  0
    1.6196    1.1327    2.8077 C   0  0  0  0  0  0  0  0  0  0  0  0
    5.2703    1.8893    2.0789 C   0  0  0  0  0  0  0  0  0  0  0  0
    2.9970    0.9038    2.8115 C   0  0  0  0  0  0  0  0  0  0  0  0
    5.6175    3.0853    1.4051 C   0  0  0  0  0  0  0  0  0  0  0  0
    6.2450    0.9898    2.4753 C   0  0  0  0  0  0  0  0  0  0  0  0
    6.9402    3.3767    1.1298 C   0  0  0  0  0  0  0  0  0  0  0  0
    7.5790    1.2925    2.1944 C   0  0  0  0  0  0  0  0  0  0  0  0
    7.9208    2.4664    1.5327 C   0  0  0  0  0  0  0  0  0  0  0  0
  1  2  1  0  0  0  0 
  2  3  2  0  0  0  0 
  4  2  1  0  0  0  0 
  5  3  1  0  0  0  0 
  3  6  1  0  0  0  0 
  7  4  2  0  0  0  0 
  8  5  1  0  0  0  0 
  5  9  2  0  0  0  0 
  6 10  1  0  0  0  0 
  9  7  1  0  0  0  0 
  8 10  2  0  0  0  0 
 11  8  1  0  0  0  0 
 10 12  1  0  0  0  0 
 13 11  2  0  0  0  0 
 12 14  2  0  0  0  0 
 14 13  1  0  0  0  0 
M  END
> <Name>
1-METHYLFLUORENE

> <Source>
NIST3DMolFile

> <Tox>
-3.523

> <CAS>
1730-37-6

$$$$

  CDK

 26 26  0  0  0  0  0  0  0  0999 V2000
   10.0399    3.2128    0.0000 C   0  0  0  0  0  0  0  0  0  0  0  0
    9.1865    2.7108    0.0000 C   0  0  0  0  0  0  0  0  0  0  0  0
    8.3331    3.2128    0.0000 C   0  0  0  0  0  0  0  0  0  0  0  0
    7.4797    2.7108    0.0000 C   0  0  0  0  0  0  0  0  0  0  0  0
    6.5761    3.2128    0.0000 C   0  0  0  0  0  0  0  0  0  0  0  0
    5.7227    2.7108    0.0000 C   0  0  0  0  0  0  0  0  0  0  0  0
    4.8693    3.2128    0.0000 C   0  0  0  0  0  0  0  0  0  0  0  0
    3.9657    2.7108    0.0000 C   0  0  0  0  0  0  0  0  0  0  0  0
    3.0120    3.0120    0.0000 O   0  0  0  0  0  0  0  0  0  0  0  0
    2.4096    2.2088    0.0000 P   0  0  0  0  0  0  0  0  0  0  0  0
    1.7068    1.5060    0.0000 C   0  0  0  0  0  0  0  0  0  0  0  0
    1.7068    2.9116    0.0000 O   0  0  0  0  0  0  0  0  0  0  0  0
    3.0120    1.4056    0.0000 O   0  0  0  0  0  0  0  0  0  0  0  0
    1.7068    0.5020    0.0000 C   0  0  0  0  0  0  0  0  0  0  0  0
    0.8534    2.0080    0.0000 C   0  0  0  0  0  0  0  0  0  0  0  0
    3.9657    1.7068    0.0000 C   0  0  0  0  0  0  0  0  0  0  0  0
    0.8534    0.0000    0.0000 C   0  0  0  0  0  0  0  0  0  0  0  0
    0.0000    1.5060    0.0000 C   0  0  0  0  0  0  0  0  0  0  0  0
    4.8693    1.2048    0.0000 C   0  0  0  0  0  0  0  0  0  0  0  0
    0.0000    0.5020    0.0000 C   0  0  0  0  0  0  0  0  0  0  0  0
    5.7227    1.7068    0.0000 C   0  0  0  0  0  0  0  0  0  0  0  0
    6.5761    1.2048    0.0000 C   0  0  0  0  0  0  0  0  0  0  0  0
    7.4797    1.7068    0.0000 C   0  0  0  0  0  0  0  0  0  0  0  0
    8.3331    1.2048    0.0000 C   0  0  0  0  0  0  0  0  0  0  0  0
    9.1865    1.7068    0.0000 C   0  0  0  0  0  0  0  0  0  0  0  0
   10.0399    1.2048    0.0000 C   0  0  0  0  0  0  0  0  0  0  0  0
  1  2  1  0  0  0  0 
  2  3  1  0  0  0  0 
  3  4  1  0  0  0  0 
  4  5  1  0  0  0  0 
  5  6  1  0  0  0  0 
  6  7  1  0  0  0  0 
  7  8  1  0  0  0  0 
  8  9  1  0  0  0  0 
 10  9  1  0  0  0  0 
 11 10  1  0  0  0  0 
 10 12  2  0  0  0  0 
 10 13  1  0  0  0  0 
 11 14  1  0  0  0  0 
 15 11  2  0  0  0  0 
 16 13  1  0  0  0  0 
 14 17  2  0  0  0  0 
 18 15  1  0  0  0  0 
 19 16  1  0  0  0  0 
 17 20  1  0  0  0  0 
 20 18  2  0  0  0  0 
 21 19  1  0  0  0  0 
 22 21  1  0  0  0  0 
 23 22  1  0  0  0  0 
 24 23  1  0  0  0  0 
 25 24  1  0  0  0  0 
 26 25  1  0  0  0  0 
M  END
> <Name>
DIOCTYL PHENYL PHOSPHONATE

> <Source>
NIST2DMolFile

> <Tox>
-5.710

> <CAS>
1754-47-8

$$$$

  CDK

 10 10  0  0  0  0  0  0  0  0999 V2000
    2.1996    5.5522    2.8397 C   0  0  0  0  0  0  0  0  0  0  0  0
    2.5463    5.1269    1.4276 C   0  0  0  0  0  0  0  0  0  0  0  0
    2.9571    3.6889    1.3765 C   0  0  0  0  0  0  0  0  0  0  0  0
    2.0414    2.6542    1.1457 C   0  0  0  0  0  0  0  0  0  0  0  0
    4.3072    3.3809    1.5644 C   0  0  0  0  0  0  0  0  0  0  0  0
    0.5936    2.9262    0.9429 C   0  0  0  0  0  0  0  0  0  0  0  0
    2.4963    1.3338    1.0982 C   0  0  0  0  0  0  0  0  0  0  0  0
    4.7556    2.0630    1.5222 C   0  0  0  0  0  0  0  0  0  0  0  0
    3.8391    1.0386    1.2812 C   0  0  0  0  0  0  0  0  0  0  0  0
    6.1895    1.7403    1.7325 C   0  0  0  0  0  0  0  0  0  0  0  0
  1  2  1  0  0  0  0 
  2  3  1  0  0  0  0 
  4  3  2  0  0  0  0 
  3  5  1  0  0  0  0 
  4  6  1  0  0  0  0 
  7  4  1  0  0  0  0 
  5  8  2  0  0  0  0 
  9  7  2  0  0  0  0 
  8  9  1  0  0  0  0 
  8 10  1  0  0  0  0 
M  END
> <Name>
2-ETHYL-1,4-DIMETHYLBENZENE

> <Source>
NIST3DMolFile

> <Tox>
-0.027

> <CAS>
1758-88-9

$$$$

  CDK

  7  7  0  0  0  0  0  0  0  0999 V2000
    1.9783    2.5503    1.9016 C   0  0  0  0  0  0  0  0  0  0  0  0
    0.5052    2.5148    1.5534 C   0  0  0  0  0  0  0  0  0  0  0  0
    2.7180    1.2797    1.4705 C   0  0  0  0  0  0  0  0  0  0  0  0
    2.7154    3.6971    1.2070 C   0  0  0  0  0  0  0  0  0  0  0  0
    4.1317    1.7001    1.0433 C   0  0  0  0  0  0  0  0  0  0  0  0
    4.1613    3.2353    1.0771 C   0  0  0  0  0  0  0  0  0  0  0  0
    5.1988    1.0967    1.9363 C   0  0  0  0  0  0  0  0  0  0  0  0
  1  2  1  0  0  0  0 
  3  1  1  0  0  0  0 
  1  4  1  0  0  0  0 
  5  3  1  0  0  0  0 
  4  6  1  0  0  0  0 
  6  5  1  0  0  0  0 
  5  7  1  0  0  0  0 
M  END
> <Name>
1,3-DIMETHYLCYCLOPENTANE (TRANS)

> <Source>
NIST3DMolFile

> <Tox>
1.818

> <CAS>
1759-58-6

$$$$

  CDK

 14 14  0  0  0  0  0  0  0  0999 V2000
    5.8020    4.0958    1.3598 C   0  0  0  0  0  0  0  0  0  0  0  0
    4.3987    4.3562    1.8843 C   0  0  0  0  0  0  0  0  0  0  0  0
    6.7752    5.1612    1.8383 C   0  0  0  0  0  0  0  0  0  0  0  0
    3.3917    3.3173    1.3894 C   0  0  0  0  0  0  0  0  0  0  0  0
    8.1792    4.9007    1.3170 C   0  0  0  0  0  0  0  0  0  0  0  0
    1.9675    3.7610    1.7155 C   0  0  0  0  0  0  0  0  0  0  0  0
    3.6699    1.9363    1.9945 C   0  0  0  0  0  0  0  0  0  0  0  0
    9.1515    5.9696    1.7891 C   0  0  0  0  0  0  0  0  0  0  0  0
    0.9348    2.8340    1.0868 C   0  0  0  0  0  0  0  0  0  0  0  0
    2.4193    1.0704    2.0872 C   0  0  0  0  0  0  0  0  0  0  0  0
   10.5568    5.7056    1.2734 C   0  0  0  0  0  0  0  0  0  0  0  0
    1.4267    1.3952    0.9862 C   0  0  0  0  0  0  0  0  0  0  0  0
   11.5290    6.7776    1.7395 C   0  0  0  0  0  0  0  0  0  0  0  0
   12.9275    6.5182    1.2264 C   0  0  0  0  0  0  0  0  0  0  0  0
  1  2  1  0  0  0  0 
  1  3  1  0  0  0  0 
  2  4  1  0  0  0  0 
  3  5  1  0  0  0  0 
  6  4  1  0  0  0  0 
  4  7  1  0  0  0  0 
  5  8  1  0  0  0  0 
  9  6  1  0  0  0  0 
  7 10  1  0  0  0  0 
  8 11  1  0  0  0  0 
 12  9  1  0  0  0  0 
 10 12  1  0  0  0  0 
 11 13  1  0  0  0  0 
 13 14  1  0  0  0  0 
M  END
> <Name>
1-CYCLOHEXYLOCTANE

> <Source>
NIST3DMolFile

> <Tox>
-2.039

> <CAS>
1795-15-9

$$$$

  CDK

 16 16  0  0  0  0  0  0  0  0999 V2000
    3.3091    5.5625    2.8580 C   0  0  0  0  0  0  0  0  0  0  0  0
    1.8683    5.3761    2.3974 C   0  0  0  0  0  0  0  0  0  0  0  0
    3.4775    5.4375    4.3635 C   0  0  0  0  0  0  0  0  0  0  0  0
    1.4687    3.9343    2.0678 C   0  0  0  0  0  0  0  0  0  0  0  0
    4.9199    5.6759    4.7793 C   0  0  0  0  0  0  0  0  0  0  0  0
    2.4129    3.3226    1.0333 C   0  0  0  0  0  0  0  0  0  0  0  0
    1.4007    3.0674    3.3249 C   0  0  0  0  0  0  0  0  0  0  0  0
    5.0910    5.5398    6.2837 C   0  0  0  0  0  0  0  0  0  0  0  0
    2.0442    1.8832    0.7185 C   0  0  0  0  0  0  0  0  0  0  0  0
    1.0329    1.6312    2.9913 C   0  0  0  0  0  0  0  0  0  0  0  0
    6.5328    5.7822    6.6998 C   0  0  0  0  0  0  0  0  0  0  0  0
    2.0018    1.0383    1.9811 C   0  0  0  0  0  0  0  0  0  0  0  0
    6.7063    5.6406    8.2032 C   0  0  0  0  0  0  0  0  0  0  0  0
    8.1487    5.8805    8.6180 C   0  0  0  0  0  0  0  0  0  0  0  0
    8.3256    5.7360   10.1210 C   0  0  0  0  0  0  0  0  0  0  0  0
    9.7600    5.9744   10.5352 C   0  0  0  0  0  0  0  0  0  0  0  0
  1  2  1  0  0  0  0 
  1  3  1  0  0  0  0 
  2  4  1  0  0  0  0 
  3  5  1  0  0  0  0 
  4  6  1  0  0  0  0 
  7  4  1  0  0  0  0 
  5  8  1  0  0  0  0 
  6  9  1  0  0  0  0 
 10  7  1  0  0  0  0 
  8 11  1  0  0  0  0 
  9 12  1  0  0  0  0 
 12 10  1  0  0  0  0 
 11 13  1  0  0  0  0 
 13 14  1  0  0  0  0 
 14 15  1  0  0  0  0 
 15 16  1  0  0  0  0 
M  END
> <Name>
N-DECYLCYCLOHEXANE

> <Source>
NIST3DMolFile

> <Tox>
-2.987

> <CAS>
1795-16-0

$$$$

  CDK

 24 23  0  0  0  0  0  0  0  0999 V2000
    0.0000    1.5045    0.0000 C   0  0  0  0  0  0  0  0  0  0  0  0
    0.8024    1.0030    0.0000 C   0  0  0  0  0  0  0  0  0  0  0  0
    1.6549    1.5045    0.0000 O   0  0  0  0  0  0  0  0  0  0  0  0
    2.5576    1.0030    0.0000 C   0  0  0  0  0  0  0  0  0  0  0  0
    3.4101    1.5045    0.0000 C   0  0  0  0  0  0  0  0  0  0  0  0
    2.5576    0.0000    0.0000 O   0  0  0  0  0  0  0  0  0  0  0  0
    4.2627    1.0030    0.0000 C   0  0  0  0  0  0  0  0  0  0  0  0
    5.1653    1.5045    0.0000 C   0  0  0  0  0  0  0  0  0  0  0  0
    6.0179    1.0030    0.0000 C   0  0  0  0  0  0  0  0  0  0  0  0
    7.0209    1.0030    0.0000 C   0  0  0  0  0  0  0  0  0  0  0  0
    7.8734    1.5045    0.0000 C   0  0  0  0  0  0  0  0  0  0  0  0
    8.7259    1.0030    0.0000 C   0  0  0  0  0  0  0  0  0  0  0  0
    9.7791    1.0030    0.0000 C   0  0  0  0  0  0  0  0  0  0  0  0
   10.6316    1.5045    0.0000 C   0  0  0  0  0  0  0  0  0  0  0  0
   11.4841    1.0030    0.0000 C   0  0  0  0  0  0  0  0  0  0  0  0
   12.4871    1.0030    0.0000 C   0  0  0  0  0  0  0  0  0  0  0  0
   13.3396    1.5045    0.0000 C   0  0  0  0  0  0  0  0  0  0  0  0
   14.2423    1.0030    0.0000 C   0  0  0  0  0  0  0  0  0  0  0  0
   15.2453    1.0030    0.0000 C   0  0  0  0  0  0  0  0  0  0  0  0
   16.0978    1.5045    0.0000 C   0  0  0  0  0  0  0  0  0  0  0  0
   16.9504    1.0030    0.0000 C   0  0  0  0  0  0  0  0  0  0  0  0
   17.8531    1.5045    0.0000 C   0  0  0  0  0  0  0  0  0  0  0  0
   18.7056    1.0030    0.0000 C   0  0  0  0  0  0  0  0  0  0  0  0
   19.5581    1.5045    0.0000 C   0  0  0  0  0  0  0  0  0  0  0  0
  1  2  1  0  0  0  0 
  2  3  1  0  0  0  0 
  3  4  1  0  0  0  0 
  4  5  1  0  0  0  0 
  4  6  2  0  0  0  0 
  5  7  1  0  0  0  0 
  7  8  1  0  0  0  0 
  8  9  1  0  0  0  0 
  9 10  2  0  0  0  0 
 10 11  1  0  0  0  0 
 11 12  1  0  0  0  0 
 12 13  2  0  0  0  0 
 13 14  1  0  0  0  0 
 14 15  1  0  0  0  0 
 15 16  2  0  0  0  0 
 16 17  1  0  0  0  0 
 17 18  1  0  0  0  0 
 18 19  2  0  0  0  0 
 19 20  1  0  0  0  0 
 20 21  1  0  0  0  0 
 21 22  1  0  0  0  0 
 22 23  1  0  0  0  0 
 23 24  1  0  0  0  0 
M  END
> <Name>
Ethyl arachidonate

> <Source>
NIST2DMolFile

> <Tox>
-6.165

> <CAS>
1808-26-0

$$$$

  CDK

  8  7  0  0  0  0  0  0  0  0999 V2000
    0.0000    1.0219    0.0000 C   0  0  0  0  0  0  0  0  0  0  0  0
    1.0219    1.0219    0.0000 C   0  0  0  0  0  0  0  0  0  0  0  0
    1.9927    1.0219    0.0000 C   0  0  0  0  0  0  0  0  0  0  0  0
    1.0219    1.9927    0.0000 F   0  0  0  0  0  0  0  0  0  0  0  0
    1.0219    0.0511    0.0000 F   0  0  0  0  0  0  0  0  0  0  0  0
    3.0146    1.0219    0.0000 F   0  0  0  0  0  0  0  0  0  0  0  0
    1.9927    0.0000    0.0000 F   0  0  0  0  0  0  0  0  0  0  0  0
    1.9927    2.0438    0.0000 F   0  0  0  0  0  0  0  0  0  0  0  0
  1  2  1  0  0  0  0 
  2  3  1  0  0  0  0 
  2  4  1  0  0  0  0 
  2  5  1  0  0  0  0 
  3  6  1  0  0  0  0 
  3  7  1  0  0  0  0 
  3  8  1  0  0  0  0 
M  END
> <Name>
1,1,1,2,2-PENTAFLUOROPROPANE

> <Source>
NIST2DMolFile

> <Tox>
3.543

> <CAS>
1814-88-6

$$$$

  CDK

 12 13  0  0  0  0  0  0  0  0999 V2000
    0.0000    0.0000    0.0000 Cl  0  0  0  0  0  0  0  0  0  0  0  0
    0.3000    1.6800    0.1600 C   0  0  0  0  0  0  0  0  0  0  0  0
    1.5800    2.2200    0.4400 C   0  0  0  0  0  0  0  0  0  0  0  0
   -0.8000    2.5600    0.0400 C   0  0  0  0  0  0  0  0  0  0  0  0
    1.7400    3.6600    0.5600 C   0  0  0  0  0  0  0  0  0  0  0  0
    2.7200    1.4000    0.5800 C   0  0  0  0  0  0  0  0  0  0  0  0
   -0.6400    3.9400    0.1600 C   0  0  0  0  0  0  0  0  0  0  0  0
    0.6200    4.5000    0.4200 C   0  0  0  0  0  0  0  0  0  0  0  0
    3.0200    4.1800    0.8400 C   0  0  0  0  0  0  0  0  0  0  0  0
    3.9800    1.9400    0.8400 C   0  0  0  0  0  0  0  0  0  0  0  0
    0.7000    6.2200    0.5600 Cl  0  0  0  0  0  0  0  0  0  0  0  0
    4.1400    3.3200    0.9800 C   0  0  0  0  0  0  0  0  0  0  0  0
  1  2  1  0  0  0  0 
  2  3  2  0  0  0  0 
  2  4  1  0  0  0  0 
  3  5  1  0  0  0  0 
  3  6  1  0  0  0  0 
  7  4  2  0  0  0  0 
  5  8  2  0  0  0  0 
  5  9  1  0  0  0  0 
 10  6  2  0  0  0  0 
  8  7  1  0  0  0  0 
  8 11  1  0  0  0  0 
  9 12  2  0  0  0  0 
 12 10  1  0  0  0  0 
M  END
> <Name>
1,4-DICHLORONAPHTHALENE

> <Source>
NIH3DMolFile

> <Tox>
-2.854

> <CAS>
1825-31-6

$$$$

  CDK

  7  6  0  0  0  0  0  0  0  0999 V2000
    1.0155    0.8632    0.0000 Si  0  0  0  0  0  0  0  0  0  0  0  0
    0.5077    0.0000    0.0000 C   0  0  0  0  0  0  0  0  0  0  0  0
    0.5077    1.7263    0.0000 C   0  0  0  0  0  0  0  0  0  0  0  0
    1.9802    0.8632    0.0000 O   0  0  0  0  0  0  0  0  0  0  0  0
    0.0000    0.8632    0.0000 C   0  0  0  0  0  0  0  0  0  0  0  0
    2.4880    1.7263    0.0000 C   0  0  0  0  0  0  0  0  0  0  0  0
    3.5034    1.7263    0.0000 C   0  0  0  0  0  0  0  0  0  0  0  0
  1  2  1  0  0  0  0 
  1  3  1  0  0  0  0 
  1  4  1  0  0  0  0 
  1  5  1  0  0  0  0 
  4  6  1  0  0  0  0 
  6  7  1  0  0  0  0 
M  END
> <Name>
ETHOXYTRIMETHYLSILANE

> <Source>
NIST2DMolFile

> <Tox>
2.061

> <CAS>
1825-62-3

$$$$

  CDK

 18 18  0  0  0  0  0  0  0  0999 V2000
    2.3118   -1.9749    0.0000 C   0  0  0  0  0  0  0  0  0  0  0  0
    1.1559   -2.6288    0.0000 C   0  0  0  0  0  0  0  0  0  0  0  0
    3.4611   -2.6288    0.0000 C   0  0  0  0  0  0  0  0  0  0  0  0
    2.3118   -0.6407    0.0000 C   0  0  0  0  0  0  0  0  0  0  0  0
    1.1559   -3.9762    0.0000 C   0  0  0  0  0  0  0  0  0  0  0  0
    0.0000   -1.9749    0.0000 Cl  0  0  0  0  0  0  0  0  0  0  0  0
    3.4611   -3.9762    0.0000 C   0  0  0  0  0  0  0  0  0  0  0  0
    4.6169   -1.9749    0.0000 Cl  0  0  0  0  0  0  0  0  0  0  0  0
    3.4611   -0.0000    0.0000 O   0  0  0  0  0  0  0  0  0  0  0  0
    1.1559   -0.0000    0.0000 O   0  0  0  0  0  0  0  0  0  0  0  0
    2.3118   -4.6302    0.0000 C   0  0  0  0  0  0  0  0  0  0  0  0
    0.0000   -4.6302    0.0000 Cl  0  0  0  0  0  0  0  0  0  0  0  0
    4.6169   -4.6302    0.0000 Cl  0  0  0  0  0  0  0  0  0  0  0  0
    0.0000   -0.6869    0.0000 C   0  0  0  0  0  0  0  0  0  0  0  0
    2.3118   -5.9644    0.0000 C   0  0  0  0  0  0  0  0  0  0  0  0
    1.1559   -6.6051    0.0000 O   0  0  0  0  0  0  0  0  0  0  0  0
    3.4611   -6.6051    0.0000 O   0  0  0  0  0  0  0  0  0  0  0  0
    4.6169   -5.9181    0.0000 C   0  0  0  0  0  0  0  0  0  0  0  0
  1  2  2  0  0  0  0 
  1  3  1  0  0  0  0 
  1  4  1  0  0  0  0 
  2  5  1  0  0  0  0 
  2  6  1  0  0  0  0 
  7  3  2  0  0  0  0 
  3  8  1  0  0  0  0 
  4  9  2  0  0  0  0 
  4 10  1  0  0  0  0 
 11  5  2  0  0  0  0 
  5 12  1  0  0  0  0 
 11  7  1  0  0  0  0 
  7 13  1  0  0  0  0 
 10 14  1  0  0  0  0 
 11 15  1  0  0  0  0 
 15 16  2  0  0  0  0 
 15 17  1  0  0  0  0 
 17 18  1  0  0  0  0 
M  END
> <Name>
DIMETHYL TETRACHLOROTEREPHTHALATE

> <Source>
DSSTox2DMolFile

> <Tox>
-5.602

> <CAS>
1861-32-1

$$$$

  CDK

 15 15  0  0  0  0  0  0  0  0999 V2000
   -1.1468   -0.2264    0.0000 Cl  0  0  0  0  0  0  0  0  0  0  0  0
   -1.1468    0.5986    0.0000 C   0  0  0  0  0  0  0  0  0  0  0  0
   -0.4323    1.0111    0.0000 C   0  0  0  0  0  0  0  0  0  0  0  0
   -1.8613    1.0111    0.0000 C   0  0  0  0  0  0  0  0  0  0  0  0
    0.2822    0.5986    0.0000 C   0  0  0  0  0  0  0  0  0  0  0  0
   -0.4323    1.8361    0.0000 C   0  0  0  0  0  0  0  0  0  0  0  0
   -1.8613    1.8361    0.0000 C   0  0  0  0  0  0  0  0  0  0  0  0
   -2.5757    0.5986    0.0000 Cl  0  0  0  0  0  0  0  0  0  0  0  0
    0.9966    0.1861    0.0000 O   0  0  0  0  0  0  0  0  0  0  0  0
    0.2822    2.2486    0.0000 Cl  0  0  0  0  0  0  0  0  0  0  0  0
   -1.1468    2.2486    0.0000 C   0  0  0  0  0  0  0  0  0  0  0  0
    0.9966   -0.6389    0.0000 C   0  0  0  0  0  0  0  0  0  0  0  0
    0.9966   -1.4639    0.0000 C   0  0  0  0  0  0  0  0  0  0  0  0
    0.9966   -2.2889    0.0000 C   0  0  0  0  0  0  0  0  0  0  0  0
    1.8216   -1.4639    0.0000 O   0  0  0  0  0  0  0  0  0  0  0  0
  1  2  1  0  0  0  0 
  2  3  2  0  0  0  0 
  2  4  1  0  0  0  0 
  3  5  1  0  0  0  0 
  3  6  1  0  0  0  0 
  7  4  2  0  0  0  0 
  4  8  1  0  0  0  0 
  5  9  1  0  0  0  0 
  6 10  1  0  0  0  0 
  6 11  2  0  0  0  0 
 11  7  1  0  0  0  0 
  9 12  1  0  0  0  0 
 12 13  1  0  0  0  0 
 13 14  1  0  0  0  0 
 13 15  1  0  0  0  0 
M  END
> <Name>
TRITAC

> <Source>
Smiles

> <Tox>
-4.000

> <CAS>
1861-44-5

$$$$

  CDK

  6  5  0  0  0  0  0  0  0  0999 V2000
    2.1572    2.7628    1.1056 C   0  0  0  0  0  0  0  0  0  0  0  0
    0.8490    2.1401    1.5403 C   0  0  0  0  0  0  0  0  0  0  0  0
    3.3536    2.0282    1.7147 C   0  0  0  0  0  0  0  0  0  0  0  0
    3.4374    0.6131    1.1604 C   0  0  0  0  0  0  0  0  0  0  0  0
    4.6589    2.7690    1.4394 C   0  0  0  0  0  0  0  0  0  0  0  0
    4.8915    4.3383    2.3309 S   0  0  0  0  0  0  0  0  0  0  0  0
  1  2  1  0  0  0  0 
  1  3  1  0  0  0  0 
  3  4  1  0  0  0  0 
  3  5  1  0  0  0  0 
  5  6  1  0  0  0  0 
M  END
> <Name>
2-METHYL-1-BUTANETHIOL

> <Source>
NIST3DMolFile

> <Tox>
1.301

> <CAS>
1878-18-8

$$$$

  CDK

 13 13  0  0  0  0  0  0  0  0999 V2000
    5.9054    4.0076    1.7959 C   0  0  0  0  0  0  0  0  0  0  0  0
    5.9103    2.6152    1.8590 C   0  0  0  0  0  0  0  0  0  0  0  0
    4.6780    4.6967    1.8686 C   0  0  0  0  0  0  0  0  0  0  0  0
    7.2036    4.7216    1.6512 C   0  0  0  0  0  0  0  0  0  0  0  0
    4.7191    1.9101    1.9806 C   0  0  0  0  0  0  0  0  0  0  0  0
    3.4559    4.0011    2.0274 C   0  0  0  0  0  0  0  0  0  0  0  0
    4.6192    6.0616    1.7736 O   0  0  0  0  0  0  0  0  0  0  0  0
    3.5137    2.6084    2.0575 C   0  0  0  0  0  0  0  0  0  0  0  0
    4.7130    0.4253    2.0317 C   0  0  0  0  0  0  0  0  0  0  0  0
    2.1050    4.6957    2.1266 C   0  0  0  0  0  0  0  0  0  0  0  0
    1.7480    5.2790    0.7570 C   0  0  0  0  0  0  0  0  0  0  0  0
    0.9876    3.7236    2.5330 C   0  0  0  0  0  0  0  0  0  0  0  0
    2.1228    5.8032    3.1853 C   0  0  0  0  0  0  0  0  0  0  0  0
  1  2  2  0  0  0  0 
  3  1  1  0  0  0  0 
  1  4  1  0  0  0  0 
  2  5  1  0  0  0  0 
  6  3  2  0  0  0  0 
  3  7  1  0  0  0  0 
  5  8  2  0  0  0  0 
  5  9  1  0  0  0  0 
  8  6  1  0  0  0  0 
  6 10  1  0  0  0  0 
 10 11  1  0  0  0  0 
 10 12  1  0  0  0  0 
 10 13  1  0  0  0  0 
M  END
> <Name>
2-(1,1-DIMETHYLETHYL)-4,6-DIMETHYLPHENOL

> <Source>
NIST3DMolFile

> <Tox>
-1.349

> <CAS>
1879-09-0

$$$$

  CDK

 10 10  0  0  0  0  0  0  0  0999 V2000
    2.9989    2.5990    0.0000 C   0  0  0  0  0  0  0  0  0  0  0  0
    2.4991    1.6994    0.0000 C   0  0  0  0  0  0  0  0  0  0  0  0
    3.9985    2.5990    0.0000 C   0  0  0  0  0  0  0  0  0  0  0  0
    2.9989    0.8497    0.0000 C   0  0  0  0  0  0  0  0  0  0  0  0
    1.4994    1.6994    0.0000 O   0  0  0  0  0  0  0  0  0  0  0  0
    4.4983    1.6994    0.0000 C   0  0  0  0  0  0  0  0  0  0  0  0
    3.9985    0.8497    0.0000 C   0  0  0  0  0  0  0  0  0  0  0  0
    0.9996    0.8497    0.0000 C   0  0  0  0  0  0  0  0  0  0  0  0
    0.0000    0.8497    0.0000 O   0  0  0  0  0  0  0  0  0  0  0  0
    1.4994    0.0000    0.0000 Cl  0  0  0  0  0  0  0  0  0  0  0  0
  1  2  2  0  0  0  0 
  3  1  1  0  0  0  0 
  2  4  1  0  0  0  0 
  2  5  1  0  0  0  0 
  6  3  2  0  0  0  0 
  4  7  2  0  0  0  0 
  5  8  1  0  0  0  0 
  7  6  1  0  0  0  0 
  8  9  2  0  0  0  0 
  8 10  1  0  0  0  0 
M  END
> <Name>
Phenyl Chloroformate

> <Source>
NIST2DMolFile

> <Tox>
-0.249

> <CAS>
1885-14-9

$$$$

  CDK

  9  8  0  0  0  0  0  0  0  0999 V2000
    1.8300    1.0797    0.6843 F   0  0  0  0  0  0  0  0  0  0  0  0
    1.5407   -0.0024   -0.0714 C   0  0  0  0  0  0  0  0  0  0  0  0
    2.3537    0.0191   -1.1485 F   0  0  0  0  0  0  0  0  0  0  0  0
    1.8359   -1.1011    0.6549 F   0  0  0  0  0  0  0  0  0  0  0  0
    0.0907    0.0088   -0.4806 C   0  0  0  0  0  0  0  0  0  0  0  0
   -0.7203    0.0026    0.6845 O   0  0  0  0  0  0  0  0  0  0  0  0
   -2.1083   -0.0027    0.3836 C   0  0  0  0  0  0  0  0  0  0  0  0
   -2.4066   -1.0974   -0.3562 F   0  0  0  0  0  0  0  0  0  0  0  0
   -2.4158    1.0933   -0.3505 F   0  0  0  0  0  0  0  0  0  0  0  0
  1  2  1  0  0  0  0 
  3  2  1  0  0  0  0 
  4  2  1  0  0  0  0 
  5  2  1  0  0  0  0 
  6  5  1  0  0  0  0 
  6  7  1  0  0  0  0 
  8  7  1  0  0  0  0 
  9  7  1  0  0  0  0 
M  END
> <Name>
Difluoromethyl 2,2,2-trifluoroethyl ether

> <Source>
Chemidplus3DMolFile

> <Tox>
2.810

> <CAS>
1885-48-9

$$$$

  CDK

  9  8  0  0  0  0  0  0  0  0999 V2000
    1.0310    0.9795    0.0000 C   0  0  0  0  0  0  0  0  0  0  0  0
    0.5155    1.8559    0.0000 Cl  0  0  0  0  0  0  0  0  0  0  0  0
    0.5155    0.1547    0.0000 Cl  0  0  0  0  0  0  0  0  0  0  0  0
    2.0621    0.9795    0.0000 C   0  0  0  0  0  0  0  0  0  0  0  0
    0.0000    0.9795    0.0000 Cl  0  0  0  0  0  0  0  0  0  0  0  0
    2.0621    0.0000    0.0000 Cl  0  0  0  0  0  0  0  0  0  0  0  0
    3.0416    0.9795    0.0000 C   0  0  0  0  0  0  0  0  0  0  0  0
    3.5571    0.1547    0.0000 Cl  0  0  0  0  0  0  0  0  0  0  0  0
    3.5571    1.8559    0.0000 Cl  0  0  0  0  0  0  0  0  0  0  0  0
  1  2  1  0  0  0  0 
  1  3  1  0  0  0  0 
  1  4  1  0  0  0  0 
  1  5  1  0  0  0  0 
  4  6  1  0  0  0  0 
  4  7  2  0  0  0  0 
  7  8  1  0  0  0  0 
  7  9  1  0  0  0  0 
M  END
> <Name>
PERCHLOROPROPYLENE

> <Source>
NIST2DMolFile

> <Tox>
-0.613

> <CAS>
1888-71-7

$$$$

  CDK

 14 14  0  0  0  0  0  0  0  0999 V2000
    3.9898   -1.1504    0.0000 Cl  0  0  0  0  0  0  0  0  0  0  0  0
    3.3248   -2.3008    0.0000 C   0  0  0  0  0  0  0  0  0  0  0  0
    3.9898   -3.4578    0.0000 C   0  0  0  0  0  0  0  0  0  0  0  0
    1.9949   -2.3008    0.0000 C   0  0  0  0  0  0  0  0  0  0  0  0
    3.3248   -4.6082    0.0000 C   0  0  0  0  0  0  0  0  0  0  0  0
    5.3197   -3.4578    0.0000 C   0  0  0  0  0  0  0  0  0  0  0  0
    1.3299   -3.4578    0.0000 C   0  0  0  0  0  0  0  0  0  0  0  0
    1.3299   -1.1504    0.0000 C   0  0  0  0  0  0  0  0  0  0  0  0
    1.9949   -4.6082    0.0000 C   0  0  0  0  0  0  0  0  0  0  0  0
    3.9898   -5.7586    0.0000 Cl  0  0  0  0  0  0  0  0  0  0  0  0
    6.6497   -3.4578    0.0000 N   0  0  0  0  0  0  0  0  0  0  0  0
    0.0000   -3.4578    0.0000 Cl  0  0  0  0  0  0  0  0  0  0  0  0
    0.6650   -0.0000    0.0000 N   0  0  0  0  0  0  0  0  0  0  0  0
    1.3299   -5.7586    0.0000 Cl  0  0  0  0  0  0  0  0  0  0  0  0
  1  2  1  0  0  0  0 
  2  3  2  0  0  0  0 
  2  4  1  0  0  0  0 
  3  5  1  0  0  0  0 
  3  6  1  0  0  0  0 
  7  4  2  0  0  0  0 
  4  8  1  0  0  0  0 
  5  9  2  0  0  0  0 
  5 10  1  0  0  0  0 
  6 11  3  0  0  0  0 
  9  7  1  0  0  0  0 
  7 12  1  0  0  0  0 
  8 13  3  0  0  0  0 
  9 14  1  0  0  0  0 
M  END
> <Name>
CHLOROTHALONIL

> <Source>
DSSTox2DMolFile

> <Tox>
-6.244

> <CAS>
1897-45-6

$$$$

  CDK

 14 14  0  0  0  0  0  0  0  0999 V2000
    5.9846   -0.0000    0.0000 Cl  0  0  0  0  0  0  0  0  0  0  0  0
    5.3223   -1.1570    0.0000 C   0  0  0  0  0  0  0  0  0  0  0  0
    5.9846   -2.3061    0.0000 N   0  0  0  0  0  0  0  0  0  0  0  0
    3.9898   -1.1570    0.0000 N   0  0  0  0  0  0  0  0  0  0  0  0
    5.3223   -3.4551    0.0000 C   0  0  0  0  0  0  0  0  0  0  0  0
    3.3275   -2.3061    0.0000 C   0  0  0  0  0  0  0  0  0  0  0  0
    3.9898   -3.4551    0.0000 N   0  0  0  0  0  0  0  0  0  0  0  0
    5.9846   -4.6122    0.0000 N   0  0  0  0  0  0  0  0  0  0  0  0
    1.9949   -2.3061    0.0000 N   0  0  0  0  0  0  0  0  0  0  0  0
    7.3172   -4.6122    0.0000 C   0  0  0  0  0  0  0  0  0  0  0  0
    1.3326   -3.4551    0.0000 C   0  0  0  0  0  0  0  0  0  0  0  0
    7.9795   -5.7612    0.0000 C   0  0  0  0  0  0  0  0  0  0  0  0
    1.9949   -4.6122    0.0000 C   0  0  0  0  0  0  0  0  0  0  0  0
    0.0000   -3.4551    0.0000 C   0  0  0  0  0  0  0  0  0  0  0  0
  1  2  1  0  0  0  0 
  2  3  2  0  0  0  0 
  2  4  1  0  0  0  0 
  3  5  1  0  0  0  0 
  6  4  2  0  0  0  0 
  5  7  2  0  0  0  0 
  5  8  1  0  0  0  0 
  7  6  1  0  0  0  0 
  6  9  1  0  0  0  0 
  8 10  1  0  0  0  0 
  9 11  1  0  0  0  0 
 10 12  1  0  0  0  0 
 11 13  1  0  0  0  0 
 11 14  1  0  0  0  0 
M  END
> <Name>
ATRAZINE

> <Source>
DSSTox2DMolFile

> <Tox>
-6.539

> <CAS>
1912-24-9

$$$$

  CDK

 13 13  0  0  0  0  0  0  0  0999 V2000
    2.3116   -1.9938    0.0000 C   0  0  0  0  0  0  0  0  0  0  0  0
    3.4501   -2.6353    0.0000 C   0  0  0  0  0  0  0  0  0  0  0  0
    2.3116   -0.6588    0.0000 C   0  0  0  0  0  0  0  0  0  0  0  0
    1.1732   -2.6353    0.0000 C   0  0  0  0  0  0  0  0  0  0  0  0
    3.4501   -3.9703    0.0000 C   0  0  0  0  0  0  0  0  0  0  0  0
    4.6233   -1.9591    0.0000 O   0  0  0  0  0  0  0  0  0  0  0  0
    1.1732   -0.0000    0.0000 O   0  0  0  0  0  0  0  0  0  0  0  0
    3.4501   -0.0000    0.0000 O   0  0  0  0  0  0  0  0  0  0  0  0
    1.1732   -3.9703    0.0000 C   0  0  0  0  0  0  0  0  0  0  0  0
    0.0000   -1.9591    0.0000 Cl  0  0  0  0  0  0  0  0  0  0  0  0
    4.6233   -4.6580    0.0000 Cl  0  0  0  0  0  0  0  0  0  0  0  0
    2.3116   -4.6406    0.0000 C   0  0  0  0  0  0  0  0  0  0  0  0
    5.7791   -2.6179    0.0000 C   0  0  0  0  0  0  0  0  0  0  0  0
  1  2  1  0  0  0  0 
  1  3  1  0  0  0  0 
  1  4  2  0  0  0  0 
  2  5  2  0  0  0  0 
  2  6  1  0  0  0  0 
  3  7  2  0  0  0  0 
  3  8  1  0  0  0  0 
  4  9  1  0  0  0  0 
  4 10  1  0  0  0  0 
  5 11  1  0  0  0  0 
  5 12  1  0  0  0  0 
  6 13  1  0  0  0  0 
  9 12  2  0  0  0  0 
M  END
> <Name>
DICAMBA

> <Source>
DSSTox2DMolFile

> <Tox>
-4.471

> <CAS>
1918-00-9

$$$$

  CDK

 14 14  0  0  0  0  0  0  0  0999 V2000
    3.4497   -2.0272    0.0000 N   0  0  0  0  0  0  0  0  0  0  0  0
    4.6073   -2.6895    0.0000 C   0  0  0  0  0  0  0  0  0  0  0  0
    2.2979   -2.6895    0.0000 C   0  0  0  0  0  0  0  0  0  0  0  0
    3.4497   -0.6969    0.0000 C   0  0  0  0  0  0  0  0  0  0  0  0
    4.6073   -4.0199    0.0000 O   0  0  0  0  0  0  0  0  0  0  0  0
    5.7592   -2.0272    0.0000 C   0  0  0  0  0  0  0  0  0  0  0  0
    2.2979   -4.0199    0.0000 C   0  0  0  0  0  0  0  0  0  0  0  0
    1.1518   -2.0272    0.0000 C   0  0  0  0  0  0  0  0  0  0  0  0
    4.5900   -0.0230    0.0000 C   0  0  0  0  0  0  0  0  0  0  0  0
    2.3094   -0.0000    0.0000 C   0  0  0  0  0  0  0  0  0  0  0  0
    5.7592   -0.6969    0.0000 Cl  0  0  0  0  0  0  0  0  0  0  0  0
    1.1518   -4.6937    0.0000 C   0  0  0  0  0  0  0  0  0  0  0  0
    0.0000   -2.6895    0.0000 C   0  0  0  0  0  0  0  0  0  0  0  0
    0.0000   -4.0199    0.0000 C   0  0  0  0  0  0  0  0  0  0  0  0
  1  2  1  0  0  0  0 
  1  3  1  0  0  0  0 
  1  4  1  0  0  0  0 
  2  5  2  0  0  0  0 
  2  6  1  0  0  0  0 
  3  7  2  0  0  0  0 
  3  8  1  0  0  0  0 
  4  9  1  0  0  0  0 
  4 10  1  0  0  0  0 
  6 11  1  0  0  0  0 
  7 12  1  0  0  0  0 
  8 13  2  0  0  0  0 
 12 14  2  0  0  0  0 
 13 14  1  0  0  0  0 
M  END
> <Name>
PROPACHLOR

> <Source>
DSSTox2DMolFile

> <Tox>
-3.638

> <CAS>
1918-16-7

$$$$

  CDK

 14 14  0  0  0  0  0  0  0  0999 V2000
    1.8412   -0.9767    4.4055 Cl  0  0  0  0  0  0  0  0  0  0  0  0
    1.8424   -0.9911    2.6804 C   0  0  0  0  0  0  0  0  0  0  0  0
    0.7945   -0.4211    1.9574 C   0  0  0  0  0  0  0  0  0  0  0  0
    2.9117   -1.5837    2.0089 C   0  0  0  0  0  0  0  0  0  0  0  0
   -0.2628    0.1652    2.5871 O   0  0  0  0  0  0  0  0  0  0  0  0
    0.8159   -0.4438    0.5629 C   0  0  0  0  0  0  0  0  0  0  0  0
    2.9331   -1.6064    0.6143 C   0  0  0  0  0  0  0  0  0  0  0  0
   -1.5540   -0.3825    2.3302 C   0  0  0  0  0  0  0  0  0  0  0  0
    1.8852   -1.0364   -0.1086 C   0  0  0  0  0  0  0  0  0  0  0  0
    4.2520   -2.3374   -0.2151 Cl  0  0  0  0  0  0  0  0  0  0  0  0
   -2.4245   -0.1638    3.5395 C   0  0  0  0  0  0  0  0  0  0  0  0
   -3.6691   -0.6656    3.2872 O   0  0  0  0  0  0  0  0  0  0  0  0
   -2.0629    0.3782    4.5751 O   0  0  0  0  0  0  0  0  0  0  0  0
   -4.6155   -0.5297    4.3522 C   0  0  0  0  0  0  0  0  0  0  0  0
  1  2  1  0  0  0  0 
  3  2  2  0  0  0  0 
  2  4  1  0  0  0  0 
  5  3  1  0  0  0  0 
  3  6  1  0  0  0  0 
  4  7  2  0  0  0  0 
  5  8  1  0  0  0  0 
  6  9  2  0  0  0  0 
 10  7  1  0  0  0  0 
  9  7  1  0  0  0  0 
  8 11  1  0  0  0  0 
 12 11  1  0  0  0  0 
 13 11  2  0  0  0  0 
 12 14  1  0  0  0  0 
M  END
> <Name>
2,4-D, METHYL ESTER

> <Source>
Chemidplus3DMolFile

> <Tox>
-2.638

> <CAS>
1928-38-7

$$$$

  CDK

 22 22  0  0  0  0  0  0  0  0999 V2000
   -1.4707   -2.2023    0.5303 C   0  0  0  0  0  0  0  0  0  0  0  0
   -0.5716   -2.6525   -0.6234 C   0  0  0  0  0  0  0  0  0  0  0  0
   -1.3636   -2.5382    1.6931 O   0  0  0  0  0  0  0  0  0  0  0  0
   -2.4736   -1.3788    0.1375 O   0  0  0  0  0  0  0  0  0  0  0  0
   -0.1043   -1.5676   -1.3984 O   0  0  0  0  0  0  0  0  0  0  0  0
   -3.3036   -0.7888    1.1397 C   0  0  0  0  0  0  0  0  0  0  0  0
    1.0110   -0.9048   -0.9136 C   0  0  0  0  0  0  0  0  0  0  0  0
   -4.1765    0.2900    0.4820 C   0  0  0  0  0  0  0  0  0  0  0  0
    1.1012    0.4607   -1.2301 C   0  0  0  0  0  0  0  0  0  0  0  0
    2.0435   -1.5435   -0.2203 C   0  0  0  0  0  0  0  0  0  0  0  0
   -3.3262    1.4689    0.0009 C   0  0  0  0  0  0  0  0  0  0  0  0
   -5.0426   -0.2444   -0.6591 C   0  0  0  0  0  0  0  0  0  0  0  0
    2.2354    1.1806   -0.8638 C   0  0  0  0  0  0  0  0  0  0  0  0
   -0.1434    1.2470   -2.0411 Cl  0  0  0  0  0  0  0  0  0  0  0  0
    3.1688   -0.8122    0.1440 C   0  0  0  0  0  0  0  0  0  0  0  0
   -2.6483    2.1789    1.1635 C   0  0  0  0  0  0  0  0  0  0  0  0
   -6.1405   -1.1648   -0.1733 C   0  0  0  0  0  0  0  0  0  0  0  0
    3.2666    0.5435   -0.1795 C   0  0  0  0  0  0  0  0  0  0  0  0
    4.4163   -1.5641    0.9760 Cl  0  0  0  0  0  0  0  0  0  0  0  0
   -1.6524    3.2168    0.6743 C   0  0  0  0  0  0  0  0  0  0  0  0
    4.6340    1.4110    0.2649 Cl  0  0  0  0  0  0  0  0  0  0  0  0
   -0.9438    3.8911    1.8267 C   0  0  0  0  0  0  0  0  0  0  0  0
  1  2  1  0  0  0  0 
  1  3  2  0  0  0  0 
  1  4  1  0  0  0  0 
  2  5  1  0  0  0  0 
  4  6  1  0  0  0  0 
  5  7  1  0  0  0  0 
  6  8  1  0  0  0  0 
  7  9  1  0  0  0  0 
  7 10  2  0  0  0  0 
  8 11  1  0  0  0  0 
  8 12  1  0  0  0  0 
  9 13  2  0  0  0  0 
  9 14  1  0  0  0  0 
 15 10  1  0  0  0  0 
 11 16  1  0  0  0  0 
 12 17  1  0  0  0  0 
 13 18  1  0  0  0  0 
 18 15  2  0  0  0  0 
 15 19  1  0  0  0  0 
 16 20  1  0  0  0  0 
 18 21  1  0  0  0  0 
 20 22  1  0  0  0  0 
M  END
> <Name>
2,4,5-T, 2-ETHYLHEXYL ESTER

> <Source>
DougDB3DMolFile

> <Tox>
-5.921

> <CAS>
1928-47-8

$$$$

  CDK

 20 20  0  0  0  0  0  0  0  0999 V2000
    6.9082   -1.3397    0.0000 C   0  0  0  0  0  0  0  0  0  0  0  0
    6.9082   -0.0000    0.0000 O   0  0  0  0  0  0  0  0  0  0  0  0
    8.0703   -2.0014    0.0000 O   0  0  0  0  0  0  0  0  0  0  0  0
    5.7622   -2.0014    0.0000 C   0  0  0  0  0  0  0  0  0  0  0  0
    9.2324   -1.3397    0.0000 C   0  0  0  0  0  0  0  0  0  0  0  0
    4.6001   -1.3397    0.0000 O   0  0  0  0  0  0  0  0  0  0  0  0
   10.3784   -2.0014    0.0000 C   0  0  0  0  0  0  0  0  0  0  0  0
    3.4702   -2.0014    0.0000 C   0  0  0  0  0  0  0  0  0  0  0  0
   11.5405   -1.3397    0.0000 O   0  0  0  0  0  0  0  0  0  0  0  0
    3.4702   -3.3250    0.0000 C   0  0  0  0  0  0  0  0  0  0  0  0
    2.3081   -1.3397    0.0000 C   0  0  0  0  0  0  0  0  0  0  0  0
   12.6865   -2.0014    0.0000 C   0  0  0  0  0  0  0  0  0  0  0  0
    2.3081   -4.0029    0.0000 C   0  0  0  0  0  0  0  0  0  0  0  0
    4.6001   -4.0029    0.0000 Cl  0  0  0  0  0  0  0  0  0  0  0  0
    1.1621   -2.0014    0.0000 C   0  0  0  0  0  0  0  0  0  0  0  0
   13.8486   -1.3397    0.0000 C   0  0  0  0  0  0  0  0  0  0  0  0
    1.1621   -3.3250    0.0000 C   0  0  0  0  0  0  0  0  0  0  0  0
   14.9785   -2.0014    0.0000 C   0  0  0  0  0  0  0  0  0  0  0  0
    0.0000   -4.0029    0.0000 Cl  0  0  0  0  0  0  0  0  0  0  0  0
   16.1406   -1.3397    0.0000 C   0  0  0  0  0  0  0  0  0  0  0  0
  1  2  2  0  0  0  0 
  1  3  1  0  0  0  0 
  1  4  1  0  0  0  0 
  3  5  1  0  0  0  0 
  4  6  1  0  0  0  0 
  5  7  1  0  0  0  0 
  6  8  1  0  0  0  0 
  7  9  1  0  0  0  0 
  8 10  2  0  0  0  0 
  8 11  1  0  0  0  0 
  9 12  1  0  0  0  0 
 10 13  1  0  0  0  0 
 10 14  1  0  0  0  0 
 11 15  2  0  0  0  0 
 12 16  1  0  0  0  0 
 13 17  2  0  0  0  0 
 15 17  1  0  0  0  0 
 16 18  1  0  0  0  0 
 17 19  1  0  0  0  0 
 18 20  1  0  0  0  0 
M  END
> <Name>
2,4-D, BUTOXYETHYL ESTER

> <Source>
DSSTox2DMolFile

> <Tox>
-5.347

> <CAS>
1929-73-3

$$$$

  CDK

 11 11  0  0  0  0  0  0  0  0999 V2000
    1.1507   -1.1507    0.0000 C   0  0  0  0  0  0  0  0  0  0  0  0
    2.3071   -1.8238    0.0000 C   0  0  0  0  0  0  0  0  0  0  0  0
    0.4833   -2.3071    0.0000 Cl  0  0  0  0  0  0  0  0  0  0  0  0
    0.0000   -0.4775    0.0000 Cl  0  0  0  0  0  0  0  0  0  0  0  0
    1.8238   -0.0000    0.0000 Cl  0  0  0  0  0  0  0  0  0  0  0  0
    3.4577   -1.1794    0.0000 N   0  0  0  0  0  0  0  0  0  0  0  0
    2.3071   -3.1528    0.0000 C   0  0  0  0  0  0  0  0  0  0  0  0
    4.6026   -1.8353    0.0000 C   0  0  0  0  0  0  0  0  0  0  0  0
    3.4577   -3.8259    0.0000 C   0  0  0  0  0  0  0  0  0  0  0  0
    5.7533   -1.1507    0.0000 Cl  0  0  0  0  0  0  0  0  0  0  0  0
    4.6026   -3.1643    0.0000 C   0  0  0  0  0  0  0  0  0  0  0  0
  1  2  1  0  0  0  0 
  1  3  1  0  0  0  0 
  1  4  1  0  0  0  0 
  1  5  1  0  0  0  0 
  6  2  2  0  0  0  0 
  2  7  1  0  0  0  0 
  6  8  1  0  0  0  0 
  7  9  2  0  0  0  0 
  8 10  1  0  0  0  0 
  8 11  2  0  0  0  0 
  9 11  1  0  0  0  0 
M  END
> <Name>
NITRAPYRIN

> <Source>
DSSTox2DMolFile

> <Tox>
-2.319

> <CAS>
1929-82-4

$$$$

  CDK

 20 21  0  0  0  0  0  0  0  0999 V2000
   -5.9742   -0.7872    0.2832 N   0  0  0  0  0  0  0  0  0  0  0  0
   -4.7698   -0.0606   -0.1708 C   0  0  0  0  0  0  0  0  0  0  0  0
   -7.1986    0.0442    0.3306 C   0  0  0  0  0  0  0  0  0  0  0  0
   -6.1759   -2.0689   -0.4339 C   0  0  0  0  0  0  0  0  0  0  0  0
   -4.8208    0.8856   -0.9414 O   0  0  0  0  0  0  0  0  0  0  0  0
   -3.5701   -0.5613    0.3863 N   0  0  0  0  0  0  0  0  0  0  0  0
   -2.2717    0.0415    0.2780 C   0  0  0  0  0  0  0  0  0  0  0  0
   -1.8555    0.7259   -0.8702 C   0  0  0  0  0  0  0  0  0  0  0  0
   -1.3838   -0.1309    1.3529 C   0  0  0  0  0  0  0  0  0  0  0  0
   -0.5665    1.2406   -0.9421 C   0  0  0  0  0  0  0  0  0  0  0  0
   -0.0961    0.3790    1.2847 C   0  0  0  0  0  0  0  0  0  0  0  0
    0.3073    1.0649    0.1341 C   0  0  0  0  0  0  0  0  0  0  0  0
    1.5400    1.7125    0.0764 O   0  0  0  0  0  0  0  0  0  0  0  0
    2.6609    0.9015    0.0311 C   0  0  0  0  0  0  0  0  0  0  0  0
    2.6449   -0.4652   -0.2668 C   0  0  0  0  0  0  0  0  0  0  0  0
    3.8690    1.5767    0.2664 C   0  0  0  0  0  0  0  0  0  0  0  0
    3.8461   -1.1610   -0.3268 C   0  0  0  0  0  0  0  0  0  0  0  0
    5.0613    0.8707    0.2006 C   0  0  0  0  0  0  0  0  0  0  0  0
    5.0440   -0.4921   -0.0933 C   0  0  0  0  0  0  0  0  0  0  0  0
    6.4986   -1.3428   -0.1673 Cl  0  0  0  0  0  0  0  0  0  0  0  0
  1  2  1  0  0  0  0 
  1  3  1  0  0  0  0 
  1  4  1  0  0  0  0 
  2  5  2  0  0  0  0 
  2  6  1  0  0  0  0 
  6  7  1  0  0  0  0 
  7  8  1  0  0  0  0 
  7  9  2  0  0  0  0 
  8 10  2  0  0  0  0 
 11  9  1  0  0  0  0 
 10 12  1  0  0  0  0 
 12 11  2  0  0  0  0 
 12 13  1  0  0  0  0 
 13 14  1  0  0  0  0 
 14 15  1  0  0  0  0 
 14 16  2  0  0  0  0 
 15 17  2  0  0  0  0 
 18 16  1  0  0  0  0 
 17 19  1  0  0  0  0 
 19 18  2  0  0  0  0 
 19 20  1  0  0  0  0 
M  END
> <Name>
CHLOROXURON

> <Source>
DougDB3DMolFile

> <Tox>
-8.409

> <CAS>
1982-47-4

$$$$

  CDK

 17 18  0  0  0  0  0  0  0  0999 V2000
    4.6037   -2.0164    0.0000 C   0  0  0  0  0  0  0  0  0  0  0  0
    3.4712   -2.6702    0.0000 N   0  0  0  0  0  0  0  0  0  0  0  0
    5.7547   -2.6702    0.0000 N   0  0  0  0  0  0  0  0  0  0  0  0
    4.6037   -0.6721    0.0000 O   0  0  0  0  0  0  0  0  0  0  0  0
    2.3019   -1.9980    0.0000 C   0  0  0  0  0  0  0  0  0  0  0  0
    6.9056   -2.0164    0.0000 C   0  0  0  0  0  0  0  0  0  0  0  0
    1.1509   -2.6702    0.0000 C   0  0  0  0  0  0  0  0  0  0  0  0
    2.3019   -0.6721    0.0000 C   0  0  0  0  0  0  0  0  0  0  0  0
    6.9056   -0.6721    0.0000 C   0  0  0  0  0  0  0  0  0  0  0  0
    8.0565   -2.6702    0.0000 C   0  0  0  0  0  0  0  0  0  0  0  0
    1.1509   -3.9960    0.0000 C   0  0  0  0  0  0  0  0  0  0  0  0
    0.0000   -1.9980    0.0000 C   0  0  0  0  0  0  0  0  0  0  0  0
    1.1509   -0.0000    0.0000 C   0  0  0  0  0  0  0  0  0  0  0  0
    8.0565   -0.0184    0.0000 C   0  0  0  0  0  0  0  0  0  0  0  0
    9.2075   -2.0164    0.0000 C   0  0  0  0  0  0  0  0  0  0  0  0
    0.0000   -0.6721    0.0000 C   0  0  0  0  0  0  0  0  0  0  0  0
    9.2075   -0.6721    0.0000 C   0  0  0  0  0  0  0  0  0  0  0  0
  1  2  1  0  0  0  0 
  1  3  1  0  0  0  0 
  1  4  2  0  0  0  0 
  2  5  1  0  0  0  0 
  3  6  1  0  0  0  0 
  5  7  1  0  0  0  0 
  5  8  1  0  0  0  0 
  6  9  2  0  0  0  0 
  6 10  1  0  0  0  0 
  7 11  1  0  0  0  0 
  7 12  1  0  0  0  0 
  8 13  1  0  0  0  0 
  9 14  1  0  0  0  0 
 10 15  2  0  0  0  0 
 12 16  1  0  0  0  0 
 13 16  1  0  0  0  0 
 14 17  2  0  0  0  0 
 15 17  1  0  0  0  0 
M  END
> <Name>
SIDURON

> <Source>
DSSTox2DMolFile

> <Tox>
-8.398

> <CAS>
1982-49-6

$$$$

  CDK

  5  4  0  0  0  0  0  0  0  0999 V2000
    2.1093    1.7906    0.9119 C   0  0  0  0  0  0  0  0  0  0  0  0
    3.4202    1.1602    0.9370 C   0  0  0  0  0  0  0  0  0  0  0  0
    0.9806    1.0851    0.9500 C   0  0  0  0  0  0  0  0  0  0  0  0
    4.5516    1.8721    0.8817 C   0  0  0  0  0  0  0  0  0  0  0  0
    5.8943    1.2535    0.9047 C   0  0  0  0  0  0  0  0  0  0  0  0
  1  2  1  0  0  0  0 
  1  3  2  0  0  0  0 
  2  4  2  0  0  0  0 
  4  5  1  0  0  0  0 
M  END
> <Name>
1,3-PENTADIENE (E)

> <Source>
NIST3DMolFile

> <Tox>
2.614

> <CAS>
2004-70-8

$$$$

  CDK

 14 13  0  0  0  0  0  0  0  0999 V2000
    3.4632   -2.0086    0.0000 C   0  0  0  0  0  0  0  0  0  0  0  0
    2.2926   -2.6666    0.0000 N   0  0  0  0  0  0  0  0  0  0  0  0
    3.4632   -0.6719    0.0000 O   0  0  0  0  0  0  0  0  0  0  0  0
    4.5991   -2.6666    0.0000 S   0  0  0  0  0  0  0  0  0  0  0  0
    2.2926   -3.9965    0.0000 C   0  0  0  0  0  0  0  0  0  0  0  0
    1.1567   -2.0086    0.0000 C   0  0  0  0  0  0  0  0  0  0  0  0
    5.7697   -2.0086    0.0000 C   0  0  0  0  0  0  0  0  0  0  0  0
    1.1567   -4.6684    0.0000 C   0  0  0  0  0  0  0  0  0  0  0  0
    1.1567   -0.6719    0.0000 C   0  0  0  0  0  0  0  0  0  0  0  0
    6.9264   -2.6666    0.0000 C   0  0  0  0  0  0  0  0  0  0  0  0
    0.0000   -3.9965    0.0000 C   0  0  0  0  0  0  0  0  0  0  0  0
    1.1567   -5.9982    0.0000 C   0  0  0  0  0  0  0  0  0  0  0  0
    0.0000   -0.0000    0.0000 C   0  0  0  0  0  0  0  0  0  0  0  0
    2.2926   -0.0000    0.0000 C   0  0  0  0  0  0  0  0  0  0  0  0
  1  2  1  0  0  0  0 
  1  3  2  0  0  0  0 
  1  4  1  0  0  0  0 
  2  5  1  0  0  0  0 
  2  6  1  0  0  0  0 
  4  7  1  0  0  0  0 
  5  8  1  0  0  0  0 
  6  9  1  0  0  0  0 
  7 10  1  0  0  0  0 
  8 11  1  0  0  0  0 
  8 12  1  0  0  0  0 
  9 13  1  0  0  0  0 
  9 14  1  0  0  0  0 
M  END
> <Name>
BUTYLATE

> <Source>
DSSTox2DMolFile

> <Tox>
-1.886

> <CAS>
2008-41-5

$$$$

  CDK

 15 14  0  0  0  0  0  0  0  0999 V2000
    6.9100    0.5007    0.0000 C   0  0  0  0  0  0  0  0  0  0  0  0
    6.0587    0.0000    0.0000 C   0  0  0  0  0  0  0  0  0  0  0  0
    7.8113    0.0000    0.0000 C   0  0  0  0  0  0  0  0  0  0  0  0
    5.2075    0.5007    0.0000 C   0  0  0  0  0  0  0  0  0  0  0  0
    8.6625    0.5007    0.0000 C   0  0  0  0  0  0  0  0  0  0  0  0
    4.3062    0.0000    0.0000 C   0  0  0  0  0  0  0  0  0  0  0  0
    9.5137    0.0000    0.0000 C   0  0  0  0  0  0  0  0  0  0  0  0
    3.4550    0.5007    0.0000 C   0  0  0  0  0  0  0  0  0  0  0  0
   10.4150    0.5007    0.0000 C   0  0  0  0  0  0  0  0  0  0  0  0
    2.6038    0.0000    0.0000 C   0  0  0  0  0  0  0  0  0  0  0  0
   11.2663    0.0000    0.0000 C   0  0  0  0  0  0  0  0  0  0  0  0
    1.7025    0.5007    0.0000 C   0  0  0  0  0  0  0  0  0  0  0  0
   12.1175    0.5007    0.0000 C   0  0  0  0  0  0  0  0  0  0  0  0
    0.8512    0.0000    0.0000 C   0  0  0  0  0  0  0  0  0  0  0  0
    0.0000    0.5007    0.0000 N   0  0  0  0  0  0  0  0  0  0  0  0
  1  2  1  0  0  0  0 
  1  3  1  0  0  0  0 
  2  4  1  0  0  0  0 
  3  5  1  0  0  0  0 
  4  6  1  0  0  0  0 
  5  7  1  0  0  0  0 
  6  8  1  0  0  0  0 
  7  9  1  0  0  0  0 
  8 10  1  0  0  0  0 
  9 11  1  0  0  0  0 
 10 12  1  0  0  0  0 
 11 13  1  0  0  0  0 
 12 14  1  0  0  0  0 
 14 15  1  0  0  0  0 
M  END
> <Name>
1-TETRADECANAMINE

> <Source>
NIST2DMolFile

> <Tox>
-3.011

> <CAS>
2016-42-4

$$$$

  CDK

 11 10  0  0  0  0  0  0  0  0999 V2000
    0.0000   -0.6673    0.0000 C   0  0  0  0  0  0  0  0  0  0  0  0
    1.1505   -0.0000    0.0000 C   0  0  0  0  0  0  0  0  0  0  0  0
    2.3010   -0.6673    0.0000 C   0  0  0  0  0  0  0  0  0  0  0  0
    3.4515   -0.0000    0.0000 C   0  0  0  0  0  0  0  0  0  0  0  0
    4.6020   -0.6673    0.0000 C   0  0  0  0  0  0  0  0  0  0  0  0
    5.7525   -0.0000    0.0000 C   0  0  0  0  0  0  0  0  0  0  0  0
    6.9029   -0.6673    0.0000 C   0  0  0  0  0  0  0  0  0  0  0  0
    8.0534   -0.0000    0.0000 C   0  0  0  0  0  0  0  0  0  0  0  0
    9.2039   -0.6673    0.0000 C   0  0  0  0  0  0  0  0  0  0  0  0
   10.3544   -0.0000    0.0000 C   0  0  0  0  0  0  0  0  0  0  0  0
   11.5049   -0.6673    0.0000 N   0  0  0  0  0  0  0  0  0  0  0  0
  1  2  1  0  0  0  0 
  2  3  1  0  0  0  0 
  3  4  1  0  0  0  0 
  4  5  1  0  0  0  0 
  5  6  1  0  0  0  0 
  6  7  1  0  0  0  0 
  7  8  1  0  0  0  0 
  8  9  1  0  0  0  0 
  9 10  1  0  0  0  0 
 10 11  1  0  0  0  0 
M  END
> <Name>
N-DECYLAMINE

> <Source>
DSSTox2DMolFile

> <Tox>
-1.000

> <CAS>
2016-57-1

$$$$

  CDK

 13 14  0  0  0  0  0  0  0  0999 V2000
    1.5511    2.1067    1.9350 C   0  0  0  0  0  0  0  0  0  0  0  0
    1.4261    1.7605    3.4113 C   0  0  0  0  0  0  0  0  0  0  0  0
    1.0501    0.9628    1.0663 C   0  0  0  0  0  0  0  0  0  0  0  0
    2.9703    2.4654    1.5865 C   0  0  0  0  0  0  0  0  0  0  0  0
    3.9981    1.5648    1.7258 C   0  0  0  0  0  0  0  0  0  0  0  0
    3.2429    3.7724    1.1026 C   0  0  0  0  0  0  0  0  0  0  0  0
    5.3289    1.9292    1.3906 C   0  0  0  0  0  0  0  0  0  0  0  0
    4.5170    4.1456    0.7739 C   0  0  0  0  0  0  0  0  0  0  0  0
    5.5926    3.2282    0.9115 C   0  0  0  0  0  0  0  0  0  0  0  0
    6.4034    1.0084    1.5293 C   0  0  0  0  0  0  0  0  0  0  0  0
    6.9252    3.5910    0.5773 C   0  0  0  0  0  0  0  0  0  0  0  0
    7.6780    1.3821    1.2007 C   0  0  0  0  0  0  0  0  0  0  0  0
    7.9417    2.6862    0.7200 C   0  0  0  0  0  0  0  0  0  0  0  0
  1  2  1  0  0  0  0 
  1  3  1  0  0  0  0 
  1  4  1  0  0  0  0 
  5  4  2  0  0  0  0 
  4  6  1  0  0  0  0 
  7  5  1  0  0  0  0 
  6  8  2  0  0  0  0 
  7  9  2  0  0  0  0 
 10  7  1  0  0  0  0 
  8  9  1  0  0  0  0 
  9 11  1  0  0  0  0 
 12 10  2  0  0  0  0 
 11 13  2  0  0  0  0 
 13 12  1  0  0  0  0 
M  END
> <Name>
2-ISOPROPYLNAPHTHALENE

> <Source>
NIST3DMolFile

> <Tox>
-2.286

> <CAS>
2027-17-0

$$$$

  CDK

 15 15  0  0  0  0  0  0  0  0999 V2000
    4.5507   -3.3305    0.0000 C   0  0  0  0  0  0  0  0  0  0  0  0
    5.7159   -4.0094    0.0000 O   0  0  0  0  0  0  0  0  0  0  0  0
    4.5507   -2.0001    0.0000 C   0  0  0  0  0  0  0  0  0  0  0  0
    3.3947   -4.0094    0.0000 C   0  0  0  0  0  0  0  0  0  0  0  0
    6.8536   -3.3305    0.0000 C   0  0  0  0  0  0  0  0  0  0  0  0
    3.3947   -1.3395    0.0000 C   0  0  0  0  0  0  0  0  0  0  0  0
    2.2387   -3.3305    0.0000 C   0  0  0  0  0  0  0  0  0  0  0  0
    6.8536   -2.0001    0.0000 O   0  0  0  0  0  0  0  0  0  0  0  0
    8.0188   -4.0094    0.0000 N   0  0  0  0  0  0  0  0  0  0  0  0
    2.2387   -2.0001    0.0000 C   0  0  0  0  0  0  0  0  0  0  0  0
    3.3947   -0.0000    0.0000 C   0  0  0  0  0  0  0  0  0  0  0  0
    1.0826   -4.0094    0.0000 C   0  0  0  0  0  0  0  0  0  0  0  0
    9.1748   -3.3305    0.0000 C   0  0  0  0  0  0  0  0  0  0  0  0
    1.0826   -1.3395    0.0000 S   0  0  0  0  0  0  0  0  0  0  0  0
    0.0000   -1.9451    0.0000 C   0  0  0  0  0  0  0  0  0  0  0  0
  1  2  1  0  0  0  0 
  1  3  2  0  0  0  0 
  1  4  1  0  0  0  0 
  2  5  1  0  0  0  0 
  3  6  1  0  0  0  0 
  4  7  2  0  0  0  0 
  5  8  2  0  0  0  0 
  5  9  1  0  0  0  0 
  6 10  2  0  0  0  0 
  6 11  1  0  0  0  0 
  7 10  1  0  0  0  0 
  7 12  1  0  0  0  0 
  9 13  1  0  0  0  0 
 10 14  1  0  0  0  0 
 14 15  1  0  0  0  0 
M  END
> <Name>
METHIOCARB

> <Source>
DSSTox2DMolFile

> <Tox>
-6.569

> <CAS>
2032-65-7

$$$$

  CDK

  9  9  0  0  0  0  0  0  0  0999 V2000
    1.9759    1.7226    0.0000 C   0  0  0  0  0  0  0  0  0  0  0  0
    1.5199    0.8613    0.0000 C   0  0  0  0  0  0  0  0  0  0  0  0
    2.9892    1.7226    0.0000 C   0  0  0  0  0  0  0  0  0  0  0  0
    1.9759    0.0000    0.0000 C   0  0  0  0  0  0  0  0  0  0  0  0
    0.5066    0.8613    0.0000 C   0  0  0  0  0  0  0  0  0  0  0  0
    3.4958    0.8613    0.0000 C   0  0  0  0  0  0  0  0  0  0  0  0
    2.9892    0.0000    0.0000 C   0  0  0  0  0  0  0  0  0  0  0  0
    0.0000    0.0000    0.0000 C   0  0  0  0  0  0  0  0  0  0  0  0
    4.5091    0.8613    0.0000 Br  0  0  0  0  0  0  0  0  0  0  0  0
  1  2  2  0  0  0  0 
  3  1  1  0  0  0  0 
  2  4  1  0  0  0  0 
  2  5  1  0  0  0  0 
  6  3  2  0  0  0  0 
  4  7  2  0  0  0  0 
  5  8  2  0  0  0  0 
  6  9  1  0  0  0  0 
  7  6  1  0  0  0  0 
M  END
> <Name>
4-BROMOSTYRENE

> <Source>
NIST2DMolFile

> <Tox>
-0.108

> <CAS>
2039-82-9

$$$$

  CDK

  9  9  0  0  0  0  0  0  0  0999 V2000
   -2.9906   -1.3252   -0.0861 Cl  0  0  0  0  0  0  0  0  0  0  0  0
   -1.5648   -0.3632   -0.0233 C   0  0  0  0  0  0  0  0  0  0  0  0
   -0.3134   -0.9736    0.0632 C   0  0  0  0  0  0  0  0  0  0  0  0
   -1.6613    1.0281   -0.0574 C   0  0  0  0  0  0  0  0  0  0  0  0
    0.8413   -0.1926    0.1154 C   0  0  0  0  0  0  0  0  0  0  0  0
   -0.5065    1.8088   -0.0053 C   0  0  0  0  0  0  0  0  0  0  0  0
    0.7446    1.1985    0.0813 C   0  0  0  0  0  0  0  0  0  0  0  0
    2.1464   -0.8284    0.2071 C   0  0  0  0  0  0  0  0  0  0  0  0
    3.3043   -0.3525   -0.2949 C   0  0  0  0  0  0  0  0  0  0  0  0
  1  2  1  0  0  0  0 
  3  2  1  0  0  0  0 
  2  4  2  0  0  0  0 
  5  3  2  0  0  0  0 
  6  4  1  0  0  0  0 
  5  7  1  0  0  0  0 
  5  8  1  0  0  0  0 
  7  6  2  0  0  0  0 
  8  9  2  0  0  0  0 
M  END
> <Name>
M-CHLOROSTYRENE

> <Source>
Chemidplus3DMolFile

> <Tox>
-0.008

> <CAS>
2039-85-2

$$$$

  CDK

  9  9  0  0  0  0  0  0  0  0999 V2000
    3.9905   -2.3049    0.0000 C   0  0  0  0  0  0  0  0  0  0  0  0
    4.6563   -3.4550    0.0000 C   0  0  0  0  0  0  0  0  0  0  0  0
    2.6588   -2.3049    0.0000 C   0  0  0  0  0  0  0  0  0  0  0  0
    1.9976   -3.4550    0.0000 C   0  0  0  0  0  0  0  0  0  0  0  0
    1.9976   -1.1501    0.0000 C   0  0  0  0  0  0  0  0  0  0  0  0
    0.6659   -3.4550    0.0000 C   0  0  0  0  0  0  0  0  0  0  0  0
    0.6659   -1.1501    0.0000 C   0  0  0  0  0  0  0  0  0  0  0  0
    2.6588   -0.0000    0.0000 Cl  0  0  0  0  0  0  0  0  0  0  0  0
    0.0000   -2.3049    0.0000 C   0  0  0  0  0  0  0  0  0  0  0  0
  1  2  2  0  0  0  0 
  1  3  1  0  0  0  0 
  3  4  2  0  0  0  0 
  3  5  1  0  0  0  0 
  4  6  1  0  0  0  0 
  7  5  2  0  0  0  0 
  5  8  1  0  0  0  0 
  6  9  2  0  0  0  0 
  9  7  1  0  0  0  0 
M  END
> <Name>
O-CHLOROSTYRENE

> <Source>
DSSTox2DMolFile

> <Tox>
-0.017

> <CAS>
2039-87-4

$$$$

  CDK

  9  9  0  0  0  0  0  0  0  0999 V2000
    3.0734    4.2701    1.6531 C   0  0  0  0  0  0  0  0  0  0  0  0
    4.2130    3.5555    0.9413 C   0  0  0  0  0  0  0  0  0  0  0  0
    1.9007    3.3377    1.9160 C   0  0  0  0  0  0  0  0  0  0  0  0
    4.8376    2.4670    1.8062 C   0  0  0  0  0  0  0  0  0  0  0  0
    0.8426    3.9944    2.7713 C   0  0  0  0  0  0  0  0  0  0  0  0
    5.7082    3.0134    2.9409 C   0  0  0  0  0  0  0  0  0  0  0  0
    5.7617    1.5470    1.0036 C   0  0  0  0  0  0  0  0  0  0  0  0
    6.7657    1.9490    3.2123 C   0  0  0  0  0  0  0  0  0  0  0  0
    6.8393    1.0622    1.9696 C   0  0  0  0  0  0  0  0  0  0  0  0
  1  2  1  0  0  0  0 
  1  3  1  0  0  0  0 
  2  4  1  0  0  0  0 
  3  5  1  0  0  0  0 
  4  6  1  0  0  0  0 
  7  4  1  0  0  0  0 
  6  8  1  0  0  0  0 
  9  7  1  0  0  0  0 
  8  9  1  0  0  0  0 
M  END
> <Name>
CYCLOPENTANE, BUTYL-

> <Source>
NIST3DMolFile

> <Tox>
0.602

> <CAS>
2040-95-1

$$$$

  CDK

 15 14  0  0  0  0  0  0  0  0999 V2000
    6.9927    0.0507    0.0000 C   0  0  0  0  0  0  0  0  0  0  0  0
    6.1313    0.5067    0.0000 C   0  0  0  0  0  0  0  0  0  0  0  0
    7.9048    0.5067    0.0000 C   0  0  0  0  0  0  0  0  0  0  0  0
    5.2699    0.0000    0.0000 C   0  0  0  0  0  0  0  0  0  0  0  0
    8.7663    0.0507    0.0000 O   0  0  0  0  0  0  0  0  0  0  0  0
    7.9048    1.4695    0.0000 O   0  0  0  0  0  0  0  0  0  0  0  0
    4.3578    0.5067    0.0000 C   0  0  0  0  0  0  0  0  0  0  0  0
    9.6277    0.5067    0.0000 C   0  0  0  0  0  0  0  0  0  0  0  0
    3.4964    0.0000    0.0000 C   0  0  0  0  0  0  0  0  0  0  0  0
   10.5398    0.0507    0.0000 C   0  0  0  0  0  0  0  0  0  0  0  0
    2.6349    0.5067    0.0000 C   0  0  0  0  0  0  0  0  0  0  0  0
    1.7228    0.0507    0.0000 O   0  0  0  0  0  0  0  0  0  0  0  0
    2.6349    1.5202    0.0000 O   0  0  0  0  0  0  0  0  0  0  0  0
    0.8614    0.5574    0.0000 C   0  0  0  0  0  0  0  0  0  0  0  0
    0.0000    0.0507    0.0000 C   0  0  0  0  0  0  0  0  0  0  0  0
  1  2  1  0  0  0  0 
  1  3  1  0  0  0  0 
  2  4  1  0  0  0  0 
  3  5  1  0  0  0  0 
  3  6  2  0  0  0  0 
  4  7  1  0  0  0  0 
  8  5  1  0  0  0  0 
  7  9  1  0  0  0  0 
  8 10  1  0  0  0  0 
  9 11  1  0  0  0  0 
 11 12  1  0  0  0  0 
 11 13  2  0  0  0  0 
 14 12  1  0  0  0  0 
 14 15  1  0  0  0  0 
M  END
> <Name>
DIETHYL PIMELATE

> <Source>
NIST2DMolFile

> <Tox>
-2.509

> <CAS>
2050-20-6

$$$$

  CDK

 11 11  0  0  0  0  0  0  0  0999 V2000
    7.4680    5.5473    1.9273 C   0  0  0  0  0  0  0  0  0  0  0  0
    6.5655    5.1315    0.7842 C   0  0  0  0  0  0  0  0  0  0  0  0
    5.4715    4.2292    1.2589 C   0  0  0  0  0  0  0  0  0  0  0  0
    4.2064    4.7462    1.5326 C   0  0  0  0  0  0  0  0  0  0  0  0
    5.7168    2.8668    1.4335 C   0  0  0  0  0  0  0  0  0  0  0  0
    3.1870    3.9041    1.9797 C   0  0  0  0  0  0  0  0  0  0  0  0
    4.7019    2.0212    1.8772 C   0  0  0  0  0  0  0  0  0  0  0  0
    1.8305    4.4631    2.2689 C   0  0  0  0  0  0  0  0  0  0  0  0
    3.4368    2.5441    2.1503 C   0  0  0  0  0  0  0  0  0  0  0  0
    4.9540    0.5673    2.0525 C   0  0  0  0  0  0  0  0  0  0  0  0
    0.9919    4.5437    1.0105 C   0  0  0  0  0  0  0  0  0  0  0  0
  1  2  1  0  0  0  0 
  2  3  1  0  0  0  0 
  4  3  2  0  0  0  0 
  3  5  1  0  0  0  0 
  6  4  1  0  0  0  0 
  5  7  2  0  0  0  0 
  6  8  1  0  0  0  0 
  9  6  2  0  0  0  0 
  7  9  1  0  0  0  0 
  7 10  1  0  0  0  0 
  8 11  1  0  0  0  0 
M  END
> <Name>
1,3-DIETHYL-5-METHYLBENZENE

> <Source>
NIST3DMolFile

> <Tox>
0.000

> <CAS>
2050-24-0

$$$$

  CDK

 14 15  0  0  0  0  0  0  0  0999 V2000
    3.6233    0.0000    0.0000 Cl  0  0  0  0  0  0  0  0  0  0  0  0
    2.4156    0.6664    0.0000 C   0  0  0  0  0  0  0  0  0  0  0  0
    1.2078    0.0000    0.0000 C   0  0  0  0  0  0  0  0  0  0  0  0
    2.4156    2.0824    0.0000 C   0  0  0  0  0  0  0  0  0  0  0  0
    0.0000    0.6664    0.0000 C   0  0  0  0  0  0  0  0  0  0  0  0
    1.2078    2.7904    0.0000 C   0  0  0  0  0  0  0  0  0  0  0  0
    0.0000    2.0824    0.0000 C   0  0  0  0  0  0  0  0  0  0  0  0
    1.2078    4.1647    0.0000 C   0  0  0  0  0  0  0  0  0  0  0  0
    0.0000    4.8728    0.0000 C   0  0  0  0  0  0  0  0  0  0  0  0
    2.4156    4.8728    0.0000 C   0  0  0  0  0  0  0  0  0  0  0  0
    0.0000    6.2888    0.0000 C   0  0  0  0  0  0  0  0  0  0  0  0
    2.4156    6.2888    0.0000 C   0  0  0  0  0  0  0  0  0  0  0  0
    1.2078    6.9551    0.0000 C   0  0  0  0  0  0  0  0  0  0  0  0
    3.6233    6.9551    0.0000 Cl  0  0  0  0  0  0  0  0  0  0  0  0
  1  2  1  0  0  0  0 
  2  3  2  0  0  0  0 
  2  4  1  0  0  0  0 
  3  5  1  0  0  0  0 
  6  4  2  0  0  0  0 
  5  7  2  0  0  0  0 
  7  6  1  0  0  0  0 
  6  8  1  0  0  0  0 
  8  9  1  0  0  0  0 
  8 10  2  0  0  0  0 
  9 11  2  0  0  0  0 
 12 10  1  0  0  0  0 
 11 13  1  0  0  0  0 
 13 12  2  0  0  0  0 
 12 14  1  0  0  0  0 
M  END
> <Name>
3,3'-DICHLOROBIPHENYL

> <Source>
IndexNet2DMolFile

> <Tox>
-3.188

> <CAS>
2050-67-1

$$$$

  CDK

 11 10  0  0  0  0  0  0  0  0999 V2000
    6.7861    0.6399   -0.0482 I   0  0  0  0  0  0  0  0  0  0  0  0
    5.0245   -0.5713   -0.0303 C   0  0  0  0  0  0  0  0  0  0  0  0
    3.7707    0.3008    0.0270 C   0  0  0  0  0  0  0  0  0  0  0  0
    2.5014   -0.5556    0.0163 C   0  0  0  0  0  0  0  0  0  0  0  0
    1.2444    0.3171    0.0330 C   0  0  0  0  0  0  0  0  0  0  0  0
   -0.0573   -0.4890    0.0003 C   0  0  0  0  0  0  0  0  0  0  0  0
   -1.3143    0.3829    0.0420 C   0  0  0  0  0  0  0  0  0  0  0  0
   -2.5837   -0.4733    0.0194 C   0  0  0  0  0  0  0  0  0  0  0  0
   -3.8407    0.3996    0.0231 C   0  0  0  0  0  0  0  0  0  0  0  0
   -5.1396   -0.4074   -0.0298 C   0  0  0  0  0  0  0  0  0  0  0  0
   -6.3912    0.4565   -0.0527 C   0  0  0  0  0  0  0  0  0  0  0  0
  1  2  1  0  0  0  0 
  3  2  1  0  0  0  0 
  4  3  1  0  0  0  0 
  5  4  1  0  0  0  0 
  6  5  1  0  0  0  0 
  6  7  1  0  0  0  0 
  7  8  1  0  0  0  0 
  8  9  1  0  0  0  0 
  9 10  1  0  0  0  0 
 10 11  1  0  0  0  0 
M  END
> <Name>
1-IODODECANE

> <Source>
Chemidplus3DMolFile

> <Tox>
-1.854

> <CAS>
2050-77-3

$$$$

  CDK

 11 10  0  0  0  0  0  0  0  0999 V2000
    5.7525   -0.0000    0.0000 N   0  0  0  0  0  0  0  0  0  0  0  0
    4.6020   -0.6673    0.0000 C   0  0  0  0  0  0  0  0  0  0  0  0
    6.9029   -0.6673    0.0000 C   0  0  0  0  0  0  0  0  0  0  0  0
    3.4515   -0.0000    0.0000 C   0  0  0  0  0  0  0  0  0  0  0  0
    8.0534   -0.0000    0.0000 C   0  0  0  0  0  0  0  0  0  0  0  0
    2.3010   -0.6673    0.0000 C   0  0  0  0  0  0  0  0  0  0  0  0
    9.2039   -0.6673    0.0000 C   0  0  0  0  0  0  0  0  0  0  0  0
    1.1505   -0.0000    0.0000 C   0  0  0  0  0  0  0  0  0  0  0  0
   10.3544   -0.0000    0.0000 C   0  0  0  0  0  0  0  0  0  0  0  0
    0.0000   -0.6673    0.0000 C   0  0  0  0  0  0  0  0  0  0  0  0
   11.5049   -0.6673    0.0000 C   0  0  0  0  0  0  0  0  0  0  0  0
  1  2  1  0  0  0  0 
  1  3  1  0  0  0  0 
  2  4  1  0  0  0  0 
  3  5  1  0  0  0  0 
  4  6  1  0  0  0  0 
  5  7  1  0  0  0  0 
  6  8  1  0  0  0  0 
  7  9  1  0  0  0  0 
  8 10  1  0  0  0  0 
  9 11  1  0  0  0  0 
M  END
> <Name>
DIPENTYLAMINE

> <Source>
DSSTox2DMolFile

> <Tox>
-0.815

> <CAS>
2050-92-2

$$$$

  CDK

 22 23  0  0  0  0  0  0  0  0999 V2000
    3.0063    1.7035    0.0000 C   0  0  0  0  0  0  0  0  0  0  0  0
    2.5052    2.6054    0.0000 C   0  0  0  0  0  0  0  0  0  0  0  0
    2.5052    0.8518    0.0000 C   0  0  0  0  0  0  0  0  0  0  0  0
    4.0083    1.7035    0.0000 C   0  0  0  0  0  0  0  0  0  0  0  0
    1.5031    2.6054    0.0000 C   0  0  0  0  0  0  0  0  0  0  0  0
    3.0063    3.4572    0.0000 Cl  0  0  0  0  0  0  0  0  0  0  0  0
    1.5031    0.8518    0.0000 C   0  0  0  0  0  0  0  0  0  0  0  0
    3.0063    0.0000    0.0000 Cl  0  0  0  0  0  0  0  0  0  0  0  0
    4.5094    2.6054    0.0000 C   0  0  0  0  0  0  0  0  0  0  0  0
    4.5094    0.8518    0.0000 C   0  0  0  0  0  0  0  0  0  0  0  0
    1.0021    1.7035    0.0000 C   0  0  0  0  0  0  0  0  0  0  0  0
    1.0021    3.4572    0.0000 Cl  0  0  0  0  0  0  0  0  0  0  0  0
    1.0021    0.0000    0.0000 Cl  0  0  0  0  0  0  0  0  0  0  0  0
    5.5115    2.6054    0.0000 C   0  0  0  0  0  0  0  0  0  0  0  0
    4.0083    3.4572    0.0000 Cl  0  0  0  0  0  0  0  0  0  0  0  0
    5.5115    0.8518    0.0000 C   0  0  0  0  0  0  0  0  0  0  0  0
    4.0083    0.0000    0.0000 Cl  0  0  0  0  0  0  0  0  0  0  0  0
    0.0000    1.7035    0.0000 Cl  0  0  0  0  0  0  0  0  0  0  0  0
    6.0125    1.7035    0.0000 C   0  0  0  0  0  0  0  0  0  0  0  0
    6.0125    3.4572    0.0000 Cl  0  0  0  0  0  0  0  0  0  0  0  0
    6.0125    0.0000    0.0000 Cl  0  0  0  0  0  0  0  0  0  0  0  0
    7.0146    1.7035    0.0000 Cl  0  0  0  0  0  0  0  0  0  0  0  0
  1  2  2  0  0  0  0 
  3  1  1  0  0  0  0 
  1  4  1  0  0  0  0 
  2  5  1  0  0  0  0 
  2  6  1  0  0  0  0 
  7  3  2  0  0  0  0 
  3  8  1  0  0  0  0 
  9  4  2  0  0  0  0 
  4 10  1  0  0  0  0 
  5 11  2  0  0  0  0 
  5 12  1  0  0  0  0 
 11  7  1  0  0  0  0 
  7 13  1  0  0  0  0 
 14  9  1  0  0  0  0 
  9 15  1  0  0  0  0 
 10 16  2  0  0  0  0 
 10 17  1  0  0  0  0 
 11 18  1  0  0  0  0 
 19 14  2  0  0  0  0 
 14 20  1  0  0  0  0 
 16 19  1  0  0  0  0 
 16 21  1  0  0  0  0 
 19 22  1  0  0  0  0 
M  END
> <Name>
DECACHLOROBIPHENYL

> <Source>
NIST2DMolFile

> <Tox>
-6.975

> <CAS>
2051-24-3

$$$$

  CDK

 13 14  0  0  0  0  0  0  0  0999 V2000
    3.7258    0.4976    0.7698 C   0  0  0  0  0  0  0  0  0  0  0  0
    4.1763   -0.6280    0.0881 C   0  0  0  0  0  0  0  0  0  0  0  0
    2.3859    0.8619    0.7097 C   0  0  0  0  0  0  0  0  0  0  0  0
    3.2828   -1.3921   -0.6554 C   0  0  0  0  0  0  0  0  0  0  0  0
    1.4848    0.0952   -0.0338 C   0  0  0  0  0  0  0  0  0  0  0  0
    1.9406   -1.0356   -0.7164 C   0  0  0  0  0  0  0  0  0  0  0  0
    0.0673    0.4755   -0.0962 C   0  0  0  0  0  0  0  0  0  0  0  0
   -0.9250   -0.4876    0.1008 C   0  0  0  0  0  0  0  0  0  0  0  0
   -0.2961    1.8011   -0.3515 C   0  0  0  0  0  0  0  0  0  0  0  0
   -2.2633   -0.1109    0.0414 C   0  0  0  0  0  0  0  0  0  0  0  0
   -1.6379    2.1611   -0.4116 C   0  0  0  0  0  0  0  0  0  0  0  0
   -2.6304    1.2077   -0.2146 C   0  0  0  0  0  0  0  0  0  0  0  0
   -3.4611   -1.2735    0.2844 Cl  0  0  0  0  0  0  0  0  0  0  0  0
  1  2  1  0  0  0  0 
  1  3  2  0  0  0  0 
  2  4  2  0  0  0  0 
  5  3  1  0  0  0  0 
  4  6  1  0  0  0  0 
  6  5  2  0  0  0  0 
  5  7  1  0  0  0  0 
  7  8  1  0  0  0  0 
  7  9  2  0  0  0  0 
  8 10  2  0  0  0  0 
 11  9  1  0  0  0  0 
 10 12  1  0  0  0  0 
 10 13  1  0  0  0  0 
 12 11  2  0  0  0  0 
M  END
> <Name>
3-CHLOROBIPHENYL

> <Source>
DougDB3DMolFile

> <Tox>
-2.134

> <CAS>
2051-61-8

$$$$

  CDK

 13 14  0  0  0  0  0  0  0  0999 V2000
    4.2470    0.0020   -0.0026 Cl  0  0  0  0  0  0  0  0  0  0  0  0
    2.5614   -0.0013    0.0008 C   0  0  0  0  0  0  0  0  0  0  0  0
    1.8745   -1.1101   -0.4870 C   0  0  0  0  0  0  0  0  0  0  0  0
    1.8745    1.1068    0.4905 C   0  0  0  0  0  0  0  0  0  0  0  0
    0.4853   -1.1091   -0.4829 C   0  0  0  0  0  0  0  0  0  0  0  0
    0.4854    1.1052    0.4883 C   0  0  0  0  0  0  0  0  0  0  0  0
   -0.2168   -0.0019    0.0025 C   0  0  0  0  0  0  0  0  0  0  0  0
   -1.6856   -0.0008    0.0011 C   0  0  0  0  0  0  0  0  0  0  0  0
   -2.3906   -1.1044    0.4887 C   0  0  0  0  0  0  0  0  0  0  0  0
   -2.3867    1.1043   -0.4884 C   0  0  0  0  0  0  0  0  0  0  0  0
   -3.7805   -1.0986    0.4877 C   0  0  0  0  0  0  0  0  0  0  0  0
   -3.7767    1.1017   -0.4912 C   0  0  0  0  0  0  0  0  0  0  0  0
   -4.4750    0.0024   -0.0026 C   0  0  0  0  0  0  0  0  0  0  0  0
  1  2  1  0  0  0  0 
  2  3  1  0  0  0  0 
  2  4  2  0  0  0  0 
  3  5  2  0  0  0  0 
  4  6  1  0  0  0  0 
  5  7  1  0  0  0  0 
  6  7  2  0  0  0  0 
  7  8  1  0  0  0  0 
  8  9  1  0  0  0  0 
  8 10  2  0  0  0  0 
  9 11  2  0  0  0  0 
 10 12  1  0  0  0  0 
 11 13  1  0  0  0  0 
 12 13  2  0  0  0  0 
M  END
> <Name>
4-CHLOROBIPHENYL

> <Source>
DougDB3DMolFile

> <Tox>
-1.979

> <CAS>
2051-62-9

$$$$

  CDK

 12 12  0  0  0  0  0  0  0  0999 V2000
    1.6184   -0.0350   -0.0894 N   0  0  0  0  0  0  0  0  0  0  0  0
    0.6522    0.9487    0.3981 C   0  0  0  0  0  0  0  0  0  0  0  0
    1.4338   -1.3147    0.5939 C   0  0  0  0  0  0  0  0  0  0  0  0
    2.9841    0.4529    0.0994 C   0  0  0  0  0  0  0  0  0  0  0  0
   -0.7671    0.5046    0.1641 C   0  0  0  0  0  0  0  0  0  0  0  0
    2.4239   -2.3521    0.1061 C   0  0  0  0  0  0  0  0  0  0  0  0
    3.2190    1.7483   -0.6500 C   0  0  0  0  0  0  0  0  0  0  0  0
   -1.7125    0.6303    1.1632 C   0  0  0  0  0  0  0  0  0  0  0  0
   -1.1386   -0.0311   -1.0481 C   0  0  0  0  0  0  0  0  0  0  0  0
   -3.0157    0.2121    0.9175 C   0  0  0  0  0  0  0  0  0  0  0  0
   -2.3946   -0.4483   -1.3237 N   0  0  0  0  0  0  0  0  0  0  0  0
   -3.3029   -0.3155   -0.3311 C   0  0  0  0  0  0  0  0  0  0  0  0
  1  2  1  0  0  0  0 
  1  3  1  0  0  0  0 
  1  4  1  0  0  0  0 
  2  5  1  0  0  0  0 
  3  6  1  0  0  0  0 
  4  7  1  0  0  0  0 
  5  8  1  0  0  0  0 
  5  9  2  0  0  0  0 
  8 10  2  0  0  0  0 
 11  9  1  0  0  0  0 
 10 12  1  0  0  0  0 
 11 12  2  0  0  0  0 
M  END
> <Name>
N,N-DIETHYL-3-PYRIDYLMETHYLAMINE

> <Source>
Chemidplus3DMolFile

> <Tox>
-2.367

> <CAS>
2055-14-3

$$$$

  CDK

 21 22  0  0  0  0  0  0  0  0999 V2000
    6.6495   -0.0000    0.0000 C   0  0  0  0  0  0  0  0  0  0  0  0
    5.4975   -0.6569    0.0000 C   0  0  0  0  0  0  0  0  0  0  0  0
    5.4975   -1.9908    0.0000 O   0  0  0  0  0  0  0  0  0  0  0  0
    6.6495   -2.6578    0.0000 P   0  0  0  0  0  0  0  0  0  0  0  0
    7.3165   -1.5057    0.0000 S   0  0  0  0  0  0  0  0  0  0  0  0
    5.9826   -3.8098    0.0000 O   0  0  0  0  0  0  0  0  0  0  0  0
    7.8016   -3.3248    0.0000 C   0  0  0  0  0  0  0  0  0  0  0  0
    4.6587   -3.8098    0.0000 C   0  0  0  0  0  0  0  0  0  0  0  0
    8.9536   -2.6578    0.0000 C   0  0  0  0  0  0  0  0  0  0  0  0
    7.8016   -4.6486    0.0000 C   0  0  0  0  0  0  0  0  0  0  0  0
    3.9917   -4.9619    0.0000 C   0  0  0  0  0  0  0  0  0  0  0  0
    3.9917   -2.6578    0.0000 C   0  0  0  0  0  0  0  0  0  0  0  0
   10.1057   -3.3248    0.0000 C   0  0  0  0  0  0  0  0  0  0  0  0
    8.9536   -5.3156    0.0000 C   0  0  0  0  0  0  0  0  0  0  0  0
    2.6578   -4.9619    0.0000 C   0  0  0  0  0  0  0  0  0  0  0  0
    2.6578   -2.6578    0.0000 C   0  0  0  0  0  0  0  0  0  0  0  0
   10.1057   -4.6486    0.0000 C   0  0  0  0  0  0  0  0  0  0  0  0
    1.9908   -3.8098    0.0000 C   0  0  0  0  0  0  0  0  0  0  0  0
    0.6670   -3.8098    0.0000 N   0  0  0  0  0  0  0  0  0  0  0  0
    0.0000   -4.9619    0.0000 O   0  0  0  0  0  0  0  0  0  0  0  0
    0.0000   -2.6578    0.0000 O   0  0  0  0  0  0  0  0  0  0  0  0
  1  2  1  0  0  0  0 
  2  3  1  0  0  0  0 
  3  4  1  0  0  0  0 
  4  5  2  0  0  0  0 
  4  6  1  0  0  0  0 
  4  7  1  0  0  0  0 
  6  8  1  0  0  0  0 
  7  9  2  0  0  0  0 
  7 10  1  0  0  0  0 
  8 11  2  0  0  0  0 
  8 12  1  0  0  0  0 
  9 13  1  0  0  0  0 
 14 10  2  0  0  0  0 
 11 15  1  0  0  0  0 
 16 12  2  0  0  0  0 
 13 17  2  0  0  0  0 
 17 14  1  0  0  0  0 
 15 18  2  0  0  0  0 
 18 16  1  0  0  0  0 
 18 19  1  0  0  0  0 
 19 20  2  0  0  0  0 
 19 21  1  0  0  0  0 
M  CHG  1  19   1
M  CHG  1  21  -1
M  END
> <Name>
EPN

> <Source>
DSSTox2DMolFile

> <Tox>
-6.022

> <CAS>
2104-64-5

$$$$

  CDK

 21 21  0  0  0  0  0  0  0  0999 V2000
    0.0000    0.0000    0.0000 C   0  0  0  0  0  0  0  0  0  0  0  0
   -0.6800   -1.0800   -0.8600 C   0  0  0  0  0  0  0  0  0  0  0  0
   -2.1400   -0.7600   -1.1800 C   0  0  0  0  0  0  0  0  0  0  0  0
   -2.8200   -1.8600   -1.9800 C   0  0  0  0  0  0  0  0  0  0  0  0
   -4.3000   -1.5600   -2.2600 C   0  0  0  0  0  0  0  0  0  0  0  0
   -5.0000   -2.7000   -2.9800 C   0  0  0  0  0  0  0  0  0  0  0  0
   -6.5000   -2.4600   -3.1200 C   0  0  0  0  0  0  0  0  0  0  0  0
   -7.2400   -3.6800   -3.7000 C   0  0  0  0  0  0  0  0  0  0  0  0
   -8.7600   -3.5000   -3.6600 C   0  0  0  0  0  0  0  0  0  0  0  0
   -9.5200   -4.8000   -3.9800 C   0  0  0  0  0  0  0  0  0  0  0  0
  -11.0200   -4.6800   -3.7600 C   0  0  0  0  0  0  0  0  0  0  0  0
  -11.7200   -6.0400   -3.8000 C   0  0  0  0  0  0  0  0  0  0  0  0
  -13.1800   -5.9600   -3.3800 C   0  0  0  0  0  0  0  0  0  0  0  0
  -13.8000   -7.3200   -3.0600 C   0  0  0  0  0  0  0  0  0  0  0  0
  -15.2400   -7.2400   -2.5800 C   0  0  0  0  0  0  0  0  0  0  0  0
  -15.6600   -8.5000   -1.9000 C   0  0  0  0  0  0  0  0  0  0  0  0
  -15.5400   -8.6200   -0.5200 C   0  0  0  0  0  0  0  0  0  0  0  0
  -16.2000   -9.5600   -2.6600 C   0  0  0  0  0  0  0  0  0  0  0  0
  -15.9400   -9.8000    0.1200 C   0  0  0  0  0  0  0  0  0  0  0  0
  -16.6000  -10.7400   -2.0200 C   0  0  0  0  0  0  0  0  0  0  0  0
  -16.4800  -10.8600   -0.6200 C   0  0  0  0  0  0  0  0  0  0  0  0
  1  2  1  0  0  0  0 
  2  3  1  0  0  0  0 
  3  4  1  0  0  0  0 
  4  5  1  0  0  0  0 
  5  6  1  0  0  0  0 
  6  7  1  0  0  0  0 
  7  8  1  0  0  0  0 
  8  9  1  0  0  0  0 
  9 10  1  0  0  0  0 
 10 11  1  0  0  0  0 
 11 12  1  0  0  0  0 
 12 13  1  0  0  0  0 
 13 14  1  0  0  0  0 
 14 15  1  0  0  0  0 
 15 16  1  0  0  0  0 
 16 17  2  0  0  0  0 
 16 18  1  0  0  0  0 
 17 19  1  0  0  0  0 
 20 18  2  0  0  0  0 
 19 21  2  0  0  0  0 
 21 20  1  0  0  0  0 
M  END
> <Name>
1-PHENYLPENTADECANE

> <Source>
NIH3DMolFile

> <Tox>
-5.143

> <CAS>
2131-18-2

$$$$

  CDK

 11 11  0  0  0  0  0  0  0  0999 V2000
    0.9984    1.6973    0.0000 C   0  0  0  0  0  0  0  0  0  0  0  0
    0.9984    0.6989    0.0000 Cl  0  0  0  0  0  0  0  0  0  0  0  0
    0.9984    2.6957    0.0000 Cl  0  0  0  0  0  0  0  0  0  0  0  0
    0.0000    1.6973    0.0000 Cl  0  0  0  0  0  0  0  0  0  0  0  0
    1.9968    1.6973    0.0000 C   0  0  0  0  0  0  0  0  0  0  0  0
    2.4960    0.8486    0.0000 C   0  0  0  0  0  0  0  0  0  0  0  0
    2.4960    2.5958    0.0000 C   0  0  0  0  0  0  0  0  0  0  0  0
    1.9968    0.0000    0.0000 Cl  0  0  0  0  0  0  0  0  0  0  0  0
    3.4944    0.8486    0.0000 C   0  0  0  0  0  0  0  0  0  0  0  0
    3.4944    2.5958    0.0000 C   0  0  0  0  0  0  0  0  0  0  0  0
    3.9936    1.6973    0.0000 C   0  0  0  0  0  0  0  0  0  0  0  0
  1  2  1  0  0  0  0 
  1  3  1  0  0  0  0 
  1  4  1  0  0  0  0 
  1  5  1  0  0  0  0 
  5  6  2  0  0  0  0 
  7  5  1  0  0  0  0 
  6  8  1  0  0  0  0 
  6  9  1  0  0  0  0 
 10  7  2  0  0  0  0 
  9 11  2  0  0  0  0 
 11 10  1  0  0  0  0 
M  END
> <Name>
2-CHLOROBENZOTRICHLORIDE

> <Source>
NIST2DMolFile

> <Tox>
-1.298

> <CAS>
2136-89-2

$$$$

  CDK

 20 21  0  0  0  0  0  0  0  0999 V2000
    2.9821    0.0000    0.0000 Cl  0  0  0  0  0  0  0  0  0  0  0  0
    3.4792    0.8946    0.0000 C   0  0  0  0  0  0  0  0  0  0  0  0
    2.9821    1.7396    0.0000 C   0  0  0  0  0  0  0  0  0  0  0  0
    4.4732    0.8946    0.0000 C   0  0  0  0  0  0  0  0  0  0  0  0
    3.4792    2.5845    0.0000 C   0  0  0  0  0  0  0  0  0  0  0  0
    1.9881    1.7396    0.0000 C   0  0  0  0  0  0  0  0  0  0  0  0
    4.9702    0.0000    0.0000 Cl  0  0  0  0  0  0  0  0  0  0  0  0
    4.9702    1.7396    0.0000 C   0  0  0  0  0  0  0  0  0  0  0  0
    2.9821    3.4792    0.0000 Cl  0  0  0  0  0  0  0  0  0  0  0  0
    4.4732    2.5845    0.0000 C   0  0  0  0  0  0  0  0  0  0  0  0
    1.4911    0.8946    0.0000 C   0  0  0  0  0  0  0  0  0  0  0  0
    1.4911    2.5845    0.0000 C   0  0  0  0  0  0  0  0  0  0  0  0
    4.9702    3.4792    0.0000 Cl  0  0  0  0  0  0  0  0  0  0  0  0
    1.9881    0.0000    0.0000 Cl  0  0  0  0  0  0  0  0  0  0  0  0
    0.4970    0.8946    0.0000 C   0  0  0  0  0  0  0  0  0  0  0  0
    1.9881    3.4792    0.0000 Cl  0  0  0  0  0  0  0  0  0  0  0  0
    0.4970    2.5845    0.0000 C   0  0  0  0  0  0  0  0  0  0  0  0
    0.0000    0.0000    0.0000 Cl  0  0  0  0  0  0  0  0  0  0  0  0
    0.0000    1.7396    0.0000 C   0  0  0  0  0  0  0  0  0  0  0  0
    0.0000    3.4792    0.0000 Cl  0  0  0  0  0  0  0  0  0  0  0  0
  1  2  1  0  0  0  0 
  3  2  2  0  0  0  0 
  2  4  1  0  0  0  0 
  5  3  1  0  0  0  0 
  3  6  1  0  0  0  0 
  4  7  1  0  0  0  0 
  4  8  2  0  0  0  0 
  5  9  1  0  0  0  0 
 10  5  2  0  0  0  0 
 11  6  2  0  0  0  0 
  6 12  1  0  0  0  0 
  8 10  1  0  0  0  0 
 10 13  1  0  0  0  0 
 11 14  1  0  0  0  0 
 15 11  1  0  0  0  0 
 12 16  1  0  0  0  0 
 12 17  2  0  0  0  0 
 15 18  1  0  0  0  0 
 19 15  2  0  0  0  0 
 17 19  1  0  0  0  0 
 17 20  1  0  0  0  0 
M  END
> <Name>
2,2',3,3',5,5',6,6'-OCTACHLOROBIPHENYL

> <Source>
NIST2DMolFile

> <Tox>
-5.406

> <CAS>
2136-99-4

$$$$

  CDK

  6  5  0  0  0  0  0  0  0  0999 V2000
    0.0000   -1.9986    0.0000 C   0  0  0  0  0  0  0  0  0  0  0  0
    1.1494   -1.3255    0.0000 C   0  0  0  0  0  0  0  0  0  0  0  0
    0.0000   -3.3241    0.0000 O   0  0  0  0  0  0  0  0  0  0  0  0
    2.3023   -1.9986    0.0000 C   0  0  0  0  0  0  0  0  0  0  0  0
    1.1494   -0.0000    0.0000 C   0  0  0  0  0  0  0  0  0  0  0  0
    3.4518   -1.3255    0.0000 O   0  0  0  0  0  0  0  0  0  0  0  0
  1  2  1  0  0  0  0 
  1  3  1  0  0  0  0 
  2  4  1  0  0  0  0 
  2  5  1  0  0  0  0 
  4  6  1  0  0  0  0 
M  END
> <Name>
1,3-Propanediol, 2-methyl-

> <Source>
DSSTox2DMolFile

> <Tox>
-1.678

> <CAS>
2163-42-0

$$$$

  CDK

 17 19  0  0  0  0  0  0  0  0999 V2000
    0.0000    2.4572    0.0000 O   0  0  0  0  0  0  0  0  0  0  0  0
    0.6664    3.6650    0.0000 C   0  0  0  0  0  0  0  0  0  0  0  0
    0.0000    4.8728    0.0000 N   0  0  0  0  0  0  0  0  0  0  0  0
    2.0824    3.6650    0.0000 N   0  0  0  0  0  0  0  0  0  0  0  0
    0.6664    6.0805    0.0000 C   0  0  0  0  0  0  0  0  0  0  0  0
    2.7904    4.8728    0.0000 C   0  0  0  0  0  0  0  0  0  0  0  0
    2.7904    2.4572    0.0000 C   0  0  0  0  0  0  0  0  0  0  0  0
    0.2082    7.3716    0.0000 C   0  0  0  0  0  0  0  0  0  0  0  0
    2.0824    6.0805    0.0000 C   0  0  0  0  0  0  0  0  0  0  0  0
    4.1647    4.8728    0.0000 O   0  0  0  0  0  0  0  0  0  0  0  0
    4.1647    2.4572    0.0000 C   0  0  0  0  0  0  0  0  0  0  0  0
    2.0824    1.2494    0.0000 C   0  0  0  0  0  0  0  0  0  0  0  0
    1.3744    8.2046    0.0000 C   0  0  0  0  0  0  0  0  0  0  0  0
    2.4988    7.3716    0.0000 C   0  0  0  0  0  0  0  0  0  0  0  0
    4.8728    1.2494    0.0000 C   0  0  0  0  0  0  0  0  0  0  0  0
    2.7904    0.0000    0.0000 C   0  0  0  0  0  0  0  0  0  0  0  0
    4.1647    0.0000    0.0000 C   0  0  0  0  0  0  0  0  0  0  0  0
  1  2  2  0  0  0  0 
  2  3  1  0  0  0  0 
  2  4  1  0  0  0  0 
  3  5  1  0  0  0  0 
  6  4  1  0  0  0  0 
  4  7  1  0  0  0  0 
  5  8  1  0  0  0  0 
  5  9  2  0  0  0  0 
  9  6  1  0  0  0  0 
  6 10  2  0  0  0  0 
  7 11  1  0  0  0  0 
  7 12  1  0  0  0  0 
  8 13  1  0  0  0  0 
 14  9  1  0  0  0  0 
 11 15  1  0  0  0  0 
 16 12  1  0  0  0  0 
 13 14  1  0  0  0  0 
 15 17  1  0  0  0  0 
 17 16  1  0  0  0  0 
M  END
> <Name>
LENACIL

> <Source>
IndexNet2DMolFile

> <Tox>
-8.824

> <CAS>
2164-08-1

$$$$

  CDK

 16 16  0  0  0  0  0  0  0  0999 V2000
    2.3025   -0.6631    0.0000 O   0  0  0  0  0  0  0  0  0  0  0  0
    2.3025   -1.9893    0.0000 C   0  0  0  0  0  0  0  0  0  0  0  0
    3.4537   -2.6617    0.0000 N   0  0  0  0  0  0  0  0  0  0  0  0
    1.1512   -2.6617    0.0000 N   0  0  0  0  0  0  0  0  0  0  0  0
    4.6050   -1.9893    0.0000 C   0  0  0  0  0  0  0  0  0  0  0  0
    1.1512   -3.9879    0.0000 C   0  0  0  0  0  0  0  0  0  0  0  0
    0.0000   -1.9893    0.0000 C   0  0  0  0  0  0  0  0  0  0  0  0
    4.6050   -0.6631    0.0000 C   0  0  0  0  0  0  0  0  0  0  0  0
    5.7562   -2.6617    0.0000 C   0  0  0  0  0  0  0  0  0  0  0  0
    5.7562   -0.0000    0.0000 C   0  0  0  0  0  0  0  0  0  0  0  0
    6.9074   -1.9893    0.0000 C   0  0  0  0  0  0  0  0  0  0  0  0
    6.9074   -0.6631    0.0000 C   0  0  0  0  0  0  0  0  0  0  0  0
    8.0587   -2.6617    0.0000 C   0  0  0  0  0  0  0  0  0  0  0  0
    7.3956   -3.8129    0.0000 F   0  0  0  0  0  0  0  0  0  0  0  0
    8.7218   -1.5104    0.0000 F   0  0  0  0  0  0  0  0  0  0  0  0
    9.2099   -3.3248    0.0000 F   0  0  0  0  0  0  0  0  0  0  0  0
  1  2  2  0  0  0  0 
  2  3  1  0  0  0  0 
  2  4  1  0  0  0  0 
  3  5  1  0  0  0  0 
  4  6  1  0  0  0  0 
  4  7  1  0  0  0  0 
  5  8  2  0  0  0  0 
  5  9  1  0  0  0  0 
  8 10  1  0  0  0  0 
 11  9  2  0  0  0  0 
 10 12  2  0  0  0  0 
 12 11  1  0  0  0  0 
 11 13  1  0  0  0  0 
 13 14  1  0  0  0  0 
 13 15  1  0  0  0  0 
 13 16  1  0  0  0  0 
M  END
> <Name>
FLUOMETURON

> <Source>
DSSTox2DMolFile

> <Tox>
-6.028

> <CAS>
2164-17-2

$$$$

  CDK

 22 24  0  0  0  0  0  0  0  0999 V2000
    2.2928    3.3133   -0.0002 Br  0  0  0  0  0  0  0  0  0  0  0  0
    2.3667    1.3984   -0.0009 C   0  0  0  0  0  0  0  0  0  0  0  0
    1.1615    0.6971   -0.0009 C   0  0  0  0  0  0  0  0  0  0  0  0
    3.5733    0.6980   -0.0006 C   0  0  0  0  0  0  0  0  0  0  0  0
   -0.0002    1.4269   -0.0010 O   0  0  0  0  0  0  0  0  0  0  0  0
    1.1614   -0.6971   -0.0006 C   0  0  0  0  0  0  0  0  0  0  0  0
    5.2315    1.6711    0.0016 Br  0  0  0  0  0  0  0  0  0  0  0  0
    3.5732   -0.6980   -0.0003 C   0  0  0  0  0  0  0  0  0  0  0  0
   -1.1619    0.6971   -0.0009 C   0  0  0  0  0  0  0  0  0  0  0  0
   -0.0003   -1.4268   -0.0007 O   0  0  0  0  0  0  0  0  0  0  0  0
    2.3666   -1.3985   -0.0003 C   0  0  0  0  0  0  0  0  0  0  0  0
    5.2314   -1.6714    0.0013 Br  0  0  0  0  0  0  0  0  0  0  0  0
   -1.1618   -0.6969   -0.0008 C   0  0  0  0  0  0  0  0  0  0  0  0
   -2.3669    1.3985   -0.0007 C   0  0  0  0  0  0  0  0  0  0  0  0
    2.2926   -3.3132    0.0029 Br  0  0  0  0  0  0  0  0  0  0  0  0
   -2.3670   -1.3984   -0.0007 C   0  0  0  0  0  0  0  0  0  0  0  0
   -2.2918    3.3132    0.0014 Br  0  0  0  0  0  0  0  0  0  0  0  0
   -3.5735    0.6981   -0.0007 C   0  0  0  0  0  0  0  0  0  0  0  0
   -2.2921   -3.3130   -0.0025 Br  0  0  0  0  0  0  0  0  0  0  0  0
   -3.5736   -0.6979   -0.0007 C   0  0  0  0  0  0  0  0  0  0  0  0
   -5.2311    1.6719    0.0021 Br  0  0  0  0  0  0  0  0  0  0  0  0
   -5.2307   -1.6722    0.0031 Br  0  0  0  0  0  0  0  0  0  0  0  0
  1  2  1  0  0  0  0 
  3  2  1  0  0  0  0 
  2  4  2  0  0  0  0 
  5  3  1  0  0  0  0 
  3  6  2  0  0  0  0 
  7  4  1  0  0  0  0 
  4  8  1  0  0  0  0 
  5  9  1  0  0  0  0 
 10  6  1  0  0  0  0 
  6 11  1  0  0  0  0 
 12  8  1  0  0  0  0 
 11  8  2  0  0  0  0 
  9 13  2  0  0  0  0 
  9 14  1  0  0  0  0 
 10 13  1  0  0  0  0 
 15 11  1  0  0  0  0 
 13 16  1  0  0  0  0 
 17 14  1  0  0  0  0 
 14 18  2  0  0  0  0 
 19 16  1  0  0  0  0 
 16 20  2  0  0  0  0 
 21 18  1  0  0  0  0 
 18 20  1  0  0  0  0 
 22 20  1  0  0  0  0 
M  END
> <Name>
OCTABROMODIBENZO-P-DIOXIN

> <Source>
Chemidplus3DMolFile

> <Tox>
-12.511

> <CAS>
2170-45-8

$$$$

  CDK

 11 11  0  0  0  0  0  0  0  0999 V2000
    3.9904   -2.3039    0.0000 N   0  0  0  0  0  0  0  0  0  0  0  0
    3.3268   -3.4558    0.0000 C   0  0  0  0  0  0  0  0  0  0  0  0
    3.3268   -1.1519    0.0000 C   0  0  0  0  0  0  0  0  0  0  0  0
    3.9904   -4.6078    0.0000 Cl  0  0  0  0  0  0  0  0  0  0  0  0
    1.9952   -3.4558    0.0000 C   0  0  0  0  0  0  0  0  0  0  0  0
    1.9952   -1.1519    0.0000 C   0  0  0  0  0  0  0  0  0  0  0  0
    3.9904   -0.0000    0.0000 Cl  0  0  0  0  0  0  0  0  0  0  0  0
    1.3317   -4.6078    0.0000 Cl  0  0  0  0  0  0  0  0  0  0  0  0
    1.3317   -2.3039    0.0000 C   0  0  0  0  0  0  0  0  0  0  0  0
    1.3317   -0.0000    0.0000 Cl  0  0  0  0  0  0  0  0  0  0  0  0
    0.0000   -2.3039    0.0000 Cl  0  0  0  0  0  0  0  0  0  0  0  0
  1  2  2  0  0  0  0 
  1  3  1  0  0  0  0 
  2  4  1  0  0  0  0 
  2  5  1  0  0  0  0 
  6  3  2  0  0  0  0 
  3  7  1  0  0  0  0 
  5  8  1  0  0  0  0 
  5  9  2  0  0  0  0 
  9  6  1  0  0  0  0 
  6 10  1  0  0  0  0 
  9 11  1  0  0  0  0 
M  END
> <Name>
2,3,4,5,6-PENTACHLORPYRIDINE

> <Source>
DSSTox2DMolFile

> <Tox>
-1.854

> <CAS>
2176-62-7

$$$$

  CDK

  8  8  0  0  0  0  0  0  0  0999 V2000
   -0.7063   -0.8859    0.2999 C   0  0  0  0  0  0  0  0  0  0  0  0
    0.7111   -0.8822   -0.3000 C   0  0  0  0  0  0  0  0  0  0  0  0
   -1.0135    0.4053    1.0589 C   0  0  0  0  0  0  0  0  0  0  0  0
   -1.7522   -1.1599   -0.7705 C   0  0  0  0  0  0  0  0  0  0  0  0
    1.0116    0.4109   -1.0587 C   0  0  0  0  0  0  0  0  0  0  0  0
    1.7584   -1.1511    0.7703 C   0  0  0  0  0  0  0  0  0  0  0  0
   -0.7237    1.6541    0.2438 C   0  0  0  0  0  0  0  0  0  0  0  0
    0.7146    1.6581   -0.2436 C   0  0  0  0  0  0  0  0  0  0  0  0
  1  2  1  0  0  0  0 
  1  3  1  0  0  0  0 
  1  4  1  0  0  0  0 
  2  5  1  0  0  0  0 
  2  6  1  0  0  0  0 
  7  3  1  0  0  0  0 
  5  8  1  0  0  0  0 
  8  7  1  0  0  0  0 
M  END
> <Name>
1,2-DIMETHYLCYCLOHEXANE (CIS)

> <Source>
DougDB3DMolFile

> <Tox>
1.161

> <CAS>
2207-01-4

$$$$

  CDK

  9  8  0  0  0  0  0  0  0  0999 V2000
    2.2992   -1.9954    0.0000 C   0  0  0  0  0  0  0  0  0  0  0  0
    2.2992   -3.3210    0.0000 O   0  0  0  0  0  0  0  0  0  0  0  0
    3.4522   -1.3257    0.0000 O   0  0  0  0  0  0  0  0  0  0  0  0
    1.1530   -1.3257    0.0000 C   0  0  0  0  0  0  0  0  0  0  0  0
    4.6053   -1.9954    0.0000 C   0  0  0  0  0  0  0  0  0  0  0  0
    0.0000   -1.9954    0.0000 C   0  0  0  0  0  0  0  0  0  0  0  0
    1.1530   -0.0000    0.0000 C   0  0  0  0  0  0  0  0  0  0  0  0
    5.7514   -1.3257    0.0000 C   0  0  0  0  0  0  0  0  0  0  0  0
    6.9045   -1.9954    0.0000 C   0  0  0  0  0  0  0  0  0  0  0  0
  1  2  2  0  0  0  0 
  1  3  1  0  0  0  0 
  1  4  1  0  0  0  0 
  3  5  1  0  0  0  0 
  4  6  1  0  0  0  0 
  4  7  2  0  0  0  0 
  5  8  1  0  0  0  0 
  8  9  1  0  0  0  0 
M  END
> <Name>
N-PROPYL METHACRYLATE

> <Source>
DSSTox2DMolFile

> <Tox>
0.805

> <CAS>
2210-28-8

$$$$

  CDK

 12 12  0  0  0  0  0  0  0  0999 V2000
    2.8846   -1.9466    0.0000 N   0  0  0  0  0  0  0  0  0  0  0  0
    2.8846   -3.2893    0.0000 C   0  0  0  0  0  0  0  0  0  0  0  0
    1.8823   -1.1500    0.0000 C   0  0  0  0  0  0  0  0  0  0  0  0
    4.1245   -1.3684    0.0000 C   0  0  0  0  0  0  0  0  0  0  0  0
    1.8823   -4.1245    0.0000 C   0  0  0  0  0  0  0  0  0  0  0  0
    0.6039   -1.4198    0.0000 C   0  0  0  0  0  0  0  0  0  0  0  0
    4.1245   -0.0385    0.0000 O   0  0  0  0  0  0  0  0  0  0  0  0
    5.2744   -2.0108    0.0000 S   0  0  0  0  0  0  0  0  0  0  0  0
    0.6039   -3.8739    0.0000 C   0  0  0  0  0  0  0  0  0  0  0  0
    0.0000   -2.6468    0.0000 C   0  0  0  0  0  0  0  0  0  0  0  0
    6.4244   -1.3427    0.0000 C   0  0  0  0  0  0  0  0  0  0  0  0
    6.4244   -0.0000    0.0000 C   0  0  0  0  0  0  0  0  0  0  0  0
  1  2  1  0  0  0  0 
  1  3  1  0  0  0  0 
  1  4  1  0  0  0  0 
  2  5  1  0  0  0  0 
  6  3  1  0  0  0  0 
  4  7  2  0  0  0  0 
  4  8  1  0  0  0  0 
  5  9  1  0  0  0  0 
 10  6  1  0  0  0  0 
  8 11  1  0  0  0  0 
  9 10  1  0  0  0  0 
 11 12  1  0  0  0  0 
M  END
> <Name>
MOLINATE

> <Source>
DSSTox2DMolFile

> <Tox>
-2.252

> <CAS>
2212-67-1

$$$$

  CDK

  7  6  0  0  0  0  0  0  0  0999 V2000
    3.3603    1.6909    1.0893 C   0  0  0  0  0  0  0  0  0  0  0  0
    2.0564    1.9193    1.8603 C   0  0  0  0  0  0  0  0  0  0  0  0
    4.4026    2.7176    1.4087 C   0  0  0  0  0  0  0  0  0  0  0  0
    0.9446    1.0707    1.2639 C   0  0  0  0  0  0  0  0  0  0  0  0
    2.2246    1.5990    3.3360 C   0  0  0  0  0  0  0  0  0  0  0  0
    5.5745    2.2507    2.1949 C   0  0  0  0  0  0  0  0  0  0  0  0
    4.2884    3.9795    0.9937 C   0  0  0  0  0  0  0  0  0  0  0  0
  1  2  1  0  0  0  0 
  1  3  1  0  0  0  0 
  2  4  1  0  0  0  0 
  2  5  1  0  0  0  0 
  3  6  1  0  0  0  0 
  3  7  2  0  0  0  0 
M  END
> <Name>
2,4-DIMETHYL-1-PENTENE

> <Source>
NIST3DMolFile

> <Tox>
1.975

> <CAS>
2213-32-3

$$$$

  CDK

  9  8  0  0  0  0  0  0  0  0999 V2000
    3.8180    3.8659    3.3009 C   0  0  0  0  0  0  0  0  0  0  0  0
    2.8875    4.0085    2.0942 C   0  0  0  0  0  0  0  0  0  0  0  0
    4.9177    2.8514    3.0349 C   0  0  0  0  0  0  0  0  0  0  0  0
    1.6571    4.8390    2.4612 C   0  0  0  0  0  0  0  0  0  0  0  0
    3.6278    4.6372    0.9252 C   0  0  0  0  0  0  0  0  0  0  0  0
    5.9573    2.8024    4.1440 C   0  0  0  0  0  0  0  0  0  0  0  0
    0.7981    4.1382    3.4905 C   0  0  0  0  0  0  0  0  0  0  0  0
    5.4840    2.0000    5.3483 C   0  0  0  0  0  0  0  0  0  0  0  0
    5.2595    0.5455    4.9978 C   0  0  0  0  0  0  0  0  0  0  0  0
  1  2  1  0  0  0  0 
  1  3  1  0  0  0  0 
  2  4  1  0  0  0  0 
  2  5  1  0  0  0  0 
  3  6  1  0  0  0  0 
  4  7  1  0  0  0  0 
  6  8  1  0  0  0  0 
  8  9  1  0  0  0  0 
M  END
> <Name>
3-METHYLOCTANE

> <Source>
NIST3DMolFile

> <Tox>
0.796

> <CAS>
2216-33-3

$$$$

  CDK

  9  8  0  0  0  0  0  0  0  0999 V2000
    4.3630    1.1404    3.1153 C   0  0  0  0  0  0  0  0  0  0  0  0
    3.7796    1.9076    1.9256 C   0  0  0  0  0  0  0  0  0  0  0  0
    5.6188    1.8034    3.6603 C   0  0  0  0  0  0  0  0  0  0  0  0
    3.3024    3.2896    2.3816 C   0  0  0  0  0  0  0  0  0  0  0  0
    4.7853    2.0068    0.7926 C   0  0  0  0  0  0  0  0  0  0  0  0
    6.1959    1.0418    4.8390 C   0  0  0  0  0  0  0  0  0  0  0  0
    2.0528    3.1705    3.2432 C   0  0  0  0  0  0  0  0  0  0  0  0
    7.4418    1.7109    5.3736 C   0  0  0  0  0  0  0  0  0  0  0  0
    0.8605    2.7108    2.4342 C   0  0  0  0  0  0  0  0  0  0  0  0
  1  2  1  0  0  0  0 
  1  3  1  0  0  0  0 
  2  4  1  0  0  0  0 
  2  5  1  0  0  0  0 
  3  6  1  0  0  0  0 
  4  7  1  0  0  0  0 
  6  8  1  0  0  0  0 
  7  9  1  0  0  0  0 
M  END
> <Name>
4-METHYLOCTANE

> <Source>
NIST3DMolFile

> <Tox>
0.834

> <CAS>
2216-34-4

$$$$

  CDK

 11 11  0  0  0  0  0  0  0  0999 V2000
    1.9925   -3.4525    0.0000 C   0  0  0  0  0  0  0  0  0  0  0  0
    1.3283   -2.3037    0.0000 C   0  0  0  0  0  0  0  0  0  0  0  0
    3.3269   -3.4525    0.0000 C   0  0  0  0  0  0  0  0  0  0  0  0
    1.9925   -1.1488    0.0000 C   0  0  0  0  0  0  0  0  0  0  0  0
    0.0000   -2.3037    0.0000 C   0  0  0  0  0  0  0  0  0  0  0  0
    3.9910   -2.3037    0.0000 C   0  0  0  0  0  0  0  0  0  0  0  0
    3.3269   -1.1488    0.0000 C   0  0  0  0  0  0  0  0  0  0  0  0
    5.3194   -2.3037    0.0000 C   0  0  0  0  0  0  0  0  0  0  0  0
    3.9910   -0.0000    0.0000 O   0  0  0  0  0  0  0  0  0  0  0  0
    5.9835   -1.1488    0.0000 C   0  0  0  0  0  0  0  0  0  0  0  0
    5.9835   -3.4525    0.0000 C   0  0  0  0  0  0  0  0  0  0  0  0
  1  2  1  0  0  0  0 
  1  3  1  0  0  0  0 
  2  4  1  0  0  0  0 
  2  5  1  1  0  0  0 
  6  3  1  0  0  0  0 
  4  7  1  0  0  0  0 
  7  6  1  0  0  0  0 
  6  8  1  6  0  0  0 
  7  9  1  1  0  0  0 
  8 10  1  0  0  0  0 
  8 11  1  0  0  0  0 
M  END
> <Name>
MENTHOL (L)

> <Source>
DSSTox2DMolFile

> <Tox>
-1.196

> <CAS>
2216-51-5

$$$$

  CDK

 11 12  0  0  0  0  0  0  0  0999 V2000
    0.0000    0.8139    0.0000 C   0  0  0  0  0  0  0  0  0  0  0  0
    0.3052    1.2717    0.0000 C   0  0  0  0  0  0  0  0  0  0  0  0
    1.1700    1.2717    0.0000 C   0  0  0  0  0  0  0  0  0  0  0  0
    1.4243    1.7295    0.0000 C   0  0  0  0  0  0  0  0  0  0  0  0
    1.2717    2.6960    0.0000 C   0  0  0  0  0  0  0  0  0  0  0  0
    2.1364    0.7630    0.0000 C   0  0  0  0  0  0  0  0  0  0  0  0
    2.3399    1.1700    0.0000 C   0  0  0  0  0  0  0  0  0  0  0  0
    2.2382    2.3399    0.0000 C   0  0  0  0  0  0  0  0  0  0  0  0
    1.5769    0.0000    0.0000 C   0  0  0  0  0  0  0  0  0  0  0  0
    3.1029    0.6613    0.0000 C   0  0  0  0  0  0  0  0  0  0  0  0
    3.3573    1.0682    0.0000 O   0  0  0  0  0  0  0  0  0  0  0  0
  1  2  1  0  0  0  0 
  3  1  1  0  0  0  0 
  4  2  1  0  0  0  0 
  3  5  1  0  0  0  0 
  6  3  1  0  0  0  0 
  4  5  1  0  0  0  0 
  4  7  1  0  0  0  0 
  4  8  1  0  0  0  0 
  7  6  1  0  0  0  0 
  6  9  1  0  0  0  0 
  6 10  1  0  0  0  0 
  7 11  1  0  0  0  0 
M  END
> <Name>
(+)-Fenchol

> <Source>
NIST2DMolFile

> <Tox>
-0.947

> <CAS>
2217-02-9

$$$$

  CDK

 18 19  0  0  0  0  0  0  0  0999 V2000
    3.4606   -2.0071    0.0000 C   0  0  0  0  0  0  0  0  0  0  0  0
    3.4606   -3.3360    0.0000 C   0  0  0  0  0  0  0  0  0  0  0  0
    4.6164   -1.3289    0.0000 C   0  0  0  0  0  0  0  0  0  0  0  0
    2.3047   -1.3496    0.0000 C   0  0  0  0  0  0  0  0  0  0  0  0
    4.6164   -3.9935    0.0000 C   0  0  0  0  0  0  0  0  0  0  0  0
    2.3255   -4.0073    0.0000 C   0  0  0  0  0  0  0  0  0  0  0  0
    5.7653   -1.9864    0.0000 C   0  0  0  0  0  0  0  0  0  0  0  0
    4.6164   -0.0000    0.0000 Cl  0  0  0  0  0  0  0  0  0  0  0  0
    1.1558   -2.0071    0.0000 C   0  0  0  0  0  0  0  0  0  0  0  0
    2.3047   -0.0138    0.0000 Cl  0  0  0  0  0  0  0  0  0  0  0  0
    5.7653   -3.3360    0.0000 C   0  0  0  0  0  0  0  0  0  0  0  0
    4.6164   -5.3223    0.0000 Cl  0  0  0  0  0  0  0  0  0  0  0  0
    1.1697   -3.3498    0.0000 C   0  0  0  0  0  0  0  0  0  0  0  0
    2.3255   -5.3362    0.0000 Cl  0  0  0  0  0  0  0  0  0  0  0  0
    6.9073   -1.3289    0.0000 Cl  0  0  0  0  0  0  0  0  0  0  0  0
    0.0000   -1.3496    0.0000 Cl  0  0  0  0  0  0  0  0  0  0  0  0
    6.9211   -3.9935    0.0000 Cl  0  0  0  0  0  0  0  0  0  0  0  0
    0.0138   -4.0073    0.0000 Cl  0  0  0  0  0  0  0  0  0  0  0  0
  1  2  1  0  0  0  0 
  1  3  2  0  0  0  0 
  1  4  1  0  0  0  0 
  2  5  2  0  0  0  0 
  2  6  1  0  0  0  0 
  7  3  1  0  0  0  0 
  3  8  1  0  0  0  0 
  9  4  2  0  0  0  0 
  4 10  1  0  0  0  0 
  5 11  1  0  0  0  0 
  5 12  1  0  0  0  0 
  6 13  2  0  0  0  0 
  6 14  1  0  0  0  0 
 11  7  2  0  0  0  0 
  7 15  1  0  0  0  0 
 13  9  1  0  0  0  0 
  9 16  1  0  0  0  0 
 11 17  1  0  0  0  0 
 13 18  1  0  0  0  0 
M  END
> <Name>
OCTACHLORONAPHTHALENE

> <Source>
DSSTox2DMolFile

> <Tox>
-7.959

> <CAS>
2234-13-1

$$$$

  CDK

  6  5  0  0  0  0  0  0  0  0999 V2000
   -3.0315    0.1801    0.0000 C   0  0  0  0  0  0  0  0  0  0  0  0
   -1.8469   -0.4289    0.0000 C   0  0  0  0  0  0  0  0  0  0  0  0
   -0.5950    0.3100    0.0000 C   0  0  0  0  0  0  0  0  0  0  0  0
    0.5950   -0.3095    0.0000 C   0  0  0  0  0  0  0  0  0  0  0  0
    1.8471    0.4291    0.0000 C   0  0  0  0  0  0  0  0  0  0  0  0
    3.0314   -0.1806    0.0000 C   0  0  0  0  0  0  0  0  0  0  0  0
  1  2  2  0  0  0  0 
  2  3  1  0  0  0  0 
  3  4  2  0  0  0  0 
  4  5  1  0  0  0  0 
  5  6  2  0  0  0  0 
M  END
> <Name>
1,3,5-HEXATRIENE

> <Source>
DougDB3DMolFile

> <Tox>
1.954

> <CAS>
2235-12-3

$$$$

  CDK

 12 11  0  0  0  0  0  0  0  0999 V2000
    4.0789    0.7694    0.0052 C   0  0  0  0  0  0  0  0  0  0  0  0
    2.9853   -0.2289   -0.0004 C   0  0  0  0  0  0  0  0  0  0  0  0
    5.3574    0.4035    0.0070 C   0  0  0  0  0  0  0  0  0  0  0  0
    3.0675   -1.4426   -0.0042 O   0  0  0  0  0  0  0  0  0  0  0  0
    1.7512    0.3594   -0.0010 O   0  0  0  0  0  0  0  0  0  0  0  0
    0.6000   -0.4827   -0.0061 C   0  0  0  0  0  0  0  0  0  0  0  0
   -0.5997    0.4779   -0.0058 C   0  0  0  0  0  0  0  0  0  0  0  0
   -1.7519   -0.3630   -0.0004 O   0  0  0  0  0  0  0  0  0  0  0  0
   -2.9848    0.2280    0.0000 C   0  0  0  0  0  0  0  0  0  0  0  0
   -3.0640    1.4419   -0.0041 O   0  0  0  0  0  0  0  0  0  0  0  0
   -4.0816   -0.7667    0.0057 C   0  0  0  0  0  0  0  0  0  0  0  0
   -5.3587   -0.3957    0.0062 C   0  0  0  0  0  0  0  0  0  0  0  0
  1  2  1  0  0  0  0 
  1  3  2  0  0  0  0 
  2  4  2  0  0  0  0 
  2  5  1  0  0  0  0 
  5  6  1  0  0  0  0 
  6  7  1  0  0  0  0 
  7  8  1  0  0  0  0 
  8  9  1  0  0  0  0 
  9 10  2  0  0  0  0 
  9 11  1  0  0  0  0 
 11 12  2  0  0  0  0 
M  END
> <Name>
2-Propenoic acid, 1,2-ethanediyl ester

> <Source>
DougDB3DMolFile

> <Tox>
-1.182

> <CAS>
2274-11-5

$$$$

  CDK

 18 18  0  0  0  0  0  0  0  0999 V2000
    3.5092   -0.2905    0.0000 P   0  0  0  0  0  0  0  0  0  0  0  0
    2.8092   -1.5030    0.0000 O   0  0  0  0  0  0  0  0  0  0  0  0
    4.7216   -0.9905    0.0000 O   0  0  0  0  0  0  0  0  0  0  0  0
    4.2092    0.9219    0.0000 O   0  0  0  0  0  0  0  0  0  0  0  0
    2.2968    0.4095    0.0000 O   0  0  0  0  0  0  0  0  0  0  0  0
    5.9341   -0.2905    0.0000 C   0  0  0  0  0  0  0  0  0  0  0  0
    5.6092    0.9219    0.0000 C   0  0  0  0  0  0  0  0  0  0  0  0
    1.0843   -0.2905    0.0000 C   0  0  0  0  0  0  0  0  0  0  0  0
    1.0843   -1.6905    0.0000 C   0  0  0  0  0  0  0  0  0  0  0  0
   -0.1281    0.4095    0.0000 C   0  0  0  0  0  0  0  0  0  0  0  0
    2.2968   -2.3905    0.0000 Cl  0  0  0  0  0  0  0  0  0  0  0  0
   -1.3405   -0.2905    0.0000 C   0  0  0  0  0  0  0  0  0  0  0  0
   -0.1281    1.8095    0.0000 C   0  0  0  0  0  0  0  0  0  0  0  0
   -2.5530    0.4095    0.0000 C   0  0  0  0  0  0  0  0  0  0  0  0
   -1.3405   -1.6905    0.0000 Cl  0  0  0  0  0  0  0  0  0  0  0  0
   -1.3405    2.5095    0.0000 C   0  0  0  0  0  0  0  0  0  0  0  0
   -2.5530    1.8095    0.0000 C   0  0  0  0  0  0  0  0  0  0  0  0
   -3.7654    2.5095    0.0000 Cl  0  0  0  0  0  0  0  0  0  0  0  0
  2  1  2  0  0  0  0 
  3  1  1  0  0  0  0 
  4  1  1  0  0  0  0 
  5  1  1  0  0  0  0 
  3  6  1  0  0  0  0 
  4  7  1  0  0  0  0 
  5  8  1  0  0  0  0 
  9  8  2  0  0  0  0 
  8 10  1  0  0  0  0 
  9 11  1  0  0  0  0 
 12 10  1  0  0  0  0 
 13 10  2  0  0  0  0 
 14 12  2  0  0  0  0 
 12 15  1  0  0  0  0 
 13 16  1  0  0  0  0 
 17 14  1  0  0  0  0 
 16 17  2  0  0  0  0 
 17 18  1  0  0  0  0 
M  END
> <Name>
PHOSPHORIC ACID,2-CHLORO-(2,4-DICHLOROPHENYL)VIN

> <Source>
IndexNet2DMolFile

> <Tox>
-5.011

> <CAS>
2274-67-1

$$$$

  CDK

  8  7  0  0  0  0  0  0  0  0999 V2000
   -0.1070   -2.4868    0.8024 O   0  0  0  0  0  0  0  0  0  0  0  0
    0.0758   -3.9136    0.5552 O   0  0  0  0  0  0  0  0  0  0  0  0
    0.9999   -1.8597    0.3067 C   0  0  0  0  0  0  0  0  0  0  0  0
   -0.9976   -4.7073    1.0159 N   0  0  0  0  0  0  0  0  0  0  0  0
    1.9563   -2.3922   -0.2401 O   0  0  0  0  0  0  0  0  0  0  0  0
    0.8764   -0.3827    0.5291 C   0  0  0  0  0  0  0  0  0  0  0  0
   -1.8971   -4.0546    1.5445 O   0  0  0  0  0  0  0  0  0  0  0  0
   -0.8961   -5.9214    0.8325 O   0  0  0  0  0  0  0  0  0  0  0  0
  1  2  1  0  0  0  0 
  1  3  1  0  0  0  0 
  2  4  1  0  0  0  0 
  5  3  2  0  0  0  0 
  6  3  1  0  0  0  0 
  7  4  1  0  0  0  0 
  8  4  2  0  0  0  0 
M  CHG  1   4   1
M  CHG  1   7  -1
M  END
> <Name>
PEROXYACETYLNITRATE

> <Source>
Chemidplus3DMolFile

> <Tox>
1.465

> <CAS>
2278-22-0

$$$$

  CDK

 16 15  0  0  0  0  0  0  0  0999 V2000
    2.6602   -1.1699    0.0000 C   0  0  0  0  0  0  0  0  0  0  0  0
    2.0192   -2.3077    0.0000 N   0  0  0  0  0  0  0  0  0  0  0  0
    4.0224   -1.1699    0.0000 S   0  0  0  0  0  0  0  0  0  0  0  0
    2.0192   -0.0000    0.0000 O   0  0  0  0  0  0  0  0  0  0  0  0
    2.6602   -3.4455    0.0000 C   0  0  0  0  0  0  0  0  0  0  0  0
    0.6811   -2.3077    0.0000 C   0  0  0  0  0  0  0  0  0  0  0  0
    4.6874   -2.3077    0.0000 C   0  0  0  0  0  0  0  0  0  0  0  0
    4.0224   -3.4455    0.0000 C   0  0  0  0  0  0  0  0  0  0  0  0
    2.0192   -4.6153    0.0000 C   0  0  0  0  0  0  0  0  0  0  0  0
    0.0000   -1.1699    0.0000 C   0  0  0  0  0  0  0  0  0  0  0  0
    0.0000   -3.4455    0.0000 C   0  0  0  0  0  0  0  0  0  0  0  0
    6.0255   -2.3077    0.0000 C   0  0  0  0  0  0  0  0  0  0  0  0
    6.6826   -1.1699    0.0000 C   0  0  0  0  0  0  0  0  0  0  0  0
    6.6826   -3.4455    0.0000 Cl  0  0  0  0  0  0  0  0  0  0  0  0
    6.0255   -0.0000    0.0000 Cl  0  0  0  0  0  0  0  0  0  0  0  0
    8.0127   -1.1699    0.0000 Cl  0  0  0  0  0  0  0  0  0  0  0  0
  1  2  1  0  0  0  0 
  1  3  1  0  0  0  0 
  1  4  2  0  0  0  0 
  2  5  1  0  0  0  0 
  2  6  1  0  0  0  0 
  3  7  1  0  0  0  0 
  5  8  1  0  0  0  0 
  5  9  1  0  0  0  0 
  6 10  1  0  0  0  0 
  6 11  1  0  0  0  0 
 12  7  1  0  0  0  0 
 12 13  2  0  0  0  0 
 12 14  1  0  0  0  0 
 13 15  1  0  0  0  0 
 13 16  1  0  0  0  0 
M  END
> <Name>
TRIALLATE

> <Source>
DSSTox2DMolFile

> <Tox>
-3.921

> <CAS>
2303-17-5

$$$$

  CDK

 24 25  0  0  0  0  0  0  0  0999 V2000
    5.7677   -3.9938    0.0000 S   0  0  0  0  0  0  0  0  0  0  0  0
    5.7677   -2.6556    0.0000 O   0  0  0  0  0  0  0  0  0  0  0  0
    4.6058   -4.6577    0.0000 O   0  0  0  0  0  0  0  0  0  0  0  0
    6.9088   -4.6577    0.0000 O   0  0  0  0  0  0  0  0  0  0  0  0
    6.9088   -2.0021    0.0000 C   0  0  0  0  0  0  0  0  0  0  0  0
    8.0706   -3.9938    0.0000 C   0  0  0  0  0  0  0  0  0  0  0  0
    6.9088   -0.6847    0.0000 C   0  0  0  0  0  0  0  0  0  0  0  0
    8.0706   -2.6556    0.0000 C   0  0  0  0  0  0  0  0  0  0  0  0
    9.2220   -4.6577    0.0000 C   0  0  0  0  0  0  0  0  0  0  0  0
    5.7677   -0.0000    0.0000 O   0  0  0  0  0  0  0  0  0  0  0  0
    8.0706   -0.0000    0.0000 C   0  0  0  0  0  0  0  0  0  0  0  0
    9.2220   -2.0021    0.0000 C   0  0  0  0  0  0  0  0  0  0  0  0
   10.3735   -5.3216    0.0000 C   0  0  0  0  0  0  0  0  0  0  0  0
    4.6058   -0.6847    0.0000 C   0  0  0  0  0  0  0  0  0  0  0  0
    9.2220   -0.6847    0.0000 C   0  0  0  0  0  0  0  0  0  0  0  0
    4.6058   -2.0021    0.0000 C   0  0  0  0  0  0  0  0  0  0  0  0
    3.4648   -0.0000    0.0000 C   0  0  0  0  0  0  0  0  0  0  0  0
    3.4648   -2.6556    0.0000 C   0  0  0  0  0  0  0  0  0  0  0  0
    2.3029   -0.6847    0.0000 C   0  0  0  0  0  0  0  0  0  0  0  0
    2.3029   -2.0021    0.0000 C   0  0  0  0  0  0  0  0  0  0  0  0
    1.1515   -2.6556    0.0000 C   0  0  0  0  0  0  0  0  0  0  0  0
    0.0000   -3.3299    0.0000 C   0  0  0  0  0  0  0  0  0  0  0  0
    0.5083   -1.5042    0.0000 C   0  0  0  0  0  0  0  0  0  0  0  0
    1.8257   -3.8175    0.0000 C   0  0  0  0  0  0  0  0  0  0  0  0
  1  2  1  0  0  0  0 
  1  3  2  0  0  0  0 
  1  4  1  0  0  0  0 
  2  5  1  0  0  0  0 
  4  6  1  0  0  0  0 
  5  7  1  0  0  0  0 
  5  8  1  0  0  0  0 
  9  6  1  0  0  0  0 
  7 10  1  0  0  0  0 
  7 11  1  0  0  0  0 
  8 12  1  0  0  0  0 
  9 13  3  0  0  0  0 
 10 14  1  0  0  0  0 
 11 15  1  0  0  0  0 
 12 15  1  0  0  0  0 
 14 16  1  0  0  0  0 
 14 17  2  0  0  0  0 
 18 16  2  0  0  0  0 
 19 17  1  0  0  0  0 
 20 18  1  0  0  0  0 
 20 19  2  0  0  0  0 
 21 20  1  0  0  0  0 
 21 22  1  0  0  0  0 
 21 23  1  0  0  0  0 
 21 24  1  0  0  0  0 
M  END
> <Name>
PROPARGITE

> <Source>
DSSTox2DMolFile

> <Tox>
-6.523

> <CAS>
2312-35-8

$$$$

  CDK

 12 12  0  0  0  0  0  0  0  0999 V2000
    5.6658    0.8780    0.7582 C   0  0  0  0  0  0  0  0  0  0  0  0
    7.0299    0.7314    0.9829 C   0  0  0  0  0  0  0  0  0  0  0  0
    4.9316    1.8094    1.4986 C   0  0  0  0  0  0  0  0  0  0  0  0
    7.6680    1.5105    1.9420 C   0  0  0  0  0  0  0  0  0  0  0  0
    5.5753    2.5908    2.4619 C   0  0  0  0  0  0  0  0  0  0  0  0
    3.4741    1.9342    1.2276 C   0  0  0  0  0  0  0  0  0  0  0  0
    6.9401    2.4385    2.6791 C   0  0  0  0  0  0  0  0  0  0  0  0
    2.8311    2.8552    2.0021 O   0  0  0  0  0  0  0  0  0  0  0  0
    2.8281    1.3104    0.4045 O   0  0  0  0  0  0  0  0  0  0  0  0
    1.4261    3.0376    1.8150 C   0  0  0  0  0  0  0  0  0  0  0  0
    0.9781    4.0967    2.8180 C   0  0  0  0  0  0  0  0  0  0  0  0
    0.8532    3.5515    4.2229 C   0  0  0  0  0  0  0  0  0  0  0  0
  2  1  2  0  0  0  0 
  1  3  1  0  0  0  0 
  4  2  1  0  0  0  0 
  3  5  2  0  0  0  0 
  3  6  1  0  0  0  0 
  7  4  2  0  0  0  0 
  5  7  1  0  0  0  0 
  6  8  1  0  0  0  0 
  6  9  2  0  0  0  0 
  8 10  1  0  0  0  0 
 10 11  1  0  0  0  0 
 11 12  1  0  0  0  0 
M  END
> <Name>
PROPYL BENZOATE

> <Source>
NIST3DMolFile

> <Tox>
-0.866

> <CAS>
2315-68-6

$$$$

  CDK

  6  5  0  0  0  0  0  0  0  0999 V2000
    2.2994   -1.3244    0.0000 C   0  0  0  0  0  0  0  0  0  0  0  0
    2.2994   -0.0000    0.0000 O   0  0  0  0  0  0  0  0  0  0  0  0
    3.4491   -1.9959    0.0000 O   0  0  0  0  0  0  0  0  0  0  0  0
    1.1497   -1.9959    0.0000 C   0  0  0  0  0  0  0  0  0  0  0  0
    4.5988   -1.3244    0.0000 C   0  0  0  0  0  0  0  0  0  0  0  0
    0.0000   -1.3244    0.0000 S   0  0  0  0  0  0  0  0  0  0  0  0
  1  2  2  0  0  0  0 
  1  3  1  0  0  0  0 
  1  4  1  0  0  0  0 
  3  5  1  0  0  0  0 
  4  6  1  0  0  0  0 
M  END
> <Name>
Methyl thioglycolate

> <Source>
DSSTox2DMolFile

> <Tox>
0.477

> <CAS>
2365-48-2

$$$$

  CDK

  5  4  0  0  0  0  0  0  0  0999 V2000
   -1.8716   -0.7172    0.1985 F   0  0  0  0  0  0  0  0  0  0  0  0
   -1.4323    0.4908   -0.2436 C   0  0  0  0  0  0  0  0  0  0  0  0
   -0.0059    0.7086    0.2315 C   0  0  0  0  0  0  0  0  0  0  0  0
    0.9401   -0.3550   -0.3257 C   0  0  0  0  0  0  0  0  0  0  0  0
    2.3697   -0.1272    0.1394 C   0  0  0  0  0  0  0  0  0  0  0  0
  1  2  1  0  0  0  0 
  3  2  1  0  0  0  0 
  3  4  1  0  0  0  0 
  4  5  1  0  0  0  0 
M  END
> <Name>
1-FLUOROBUTANE

> <Source>
Chemidplus3DMolFile

> <Tox>
2.762

> <CAS>
2366-52-1

$$$$

  CDK

 10 10  0  0  0  0  0  0  0  0999 V2000
    0.0000    1.7493    0.0000 F   0  0  0  0  0  0  0  0  0  0  0  0
    0.9996    1.7493    0.0000 C   0  0  0  0  0  0  0  0  0  0  0  0
    1.4994    2.5990    0.0000 C   0  0  0  0  0  0  0  0  0  0  0  0
    1.4994    0.8997    0.0000 C   0  0  0  0  0  0  0  0  0  0  0  0
    0.9996    3.4987    0.0000 F   0  0  0  0  0  0  0  0  0  0  0  0
    2.4991    2.5990    0.0000 C   0  0  0  0  0  0  0  0  0  0  0  0
    0.9996    0.0000    0.0000 F   0  0  0  0  0  0  0  0  0  0  0  0
    2.4991    0.8997    0.0000 C   0  0  0  0  0  0  0  0  0  0  0  0
    2.9989    1.7493    0.0000 C   0  0  0  0  0  0  0  0  0  0  0  0
    3.9985    1.7493    0.0000 F   0  0  0  0  0  0  0  0  0  0  0  0
  1  2  1  0  0  0  0 
  3  2  2  0  0  0  0 
  2  4  1  0  0  0  0 
  3  5  1  0  0  0  0 
  6  3  1  0  0  0  0 
  4  7  1  0  0  0  0 
  4  8  2  0  0  0  0 
  9  6  2  0  0  0  0 
  8  9  1  0  0  0  0 
  9 10  1  0  0  0  0 
M  END
> <Name>
1,2,3,5-TETRAFLUOROBENZENE

> <Source>
NIST2DMolFile

> <Tox>
1.865

> <CAS>
2367-82-0

$$$$

  CDK

 22 26  0  0  0  0  0  0  0  0999 V2000
    2.0888   -1.6738    0.0000 C   0  0  0  0  0  0  0  0  0  0  0  0
    3.2727   -2.7488    0.0000 C   0  0  0  0  0  0  0  0  0  0  0  0
    2.0888   -3.1434    0.0000 C   0  0  0  0  0  0  0  0  0  0  0  0
    3.6129   -1.6738    0.0000 C   0  0  0  0  0  0  0  0  0  0  0  0
    1.3336   -1.6738    0.0000 Cl  0  0  0  0  0  0  0  0  0  0  0  0
    3.2727   -4.2116    0.0000 C   0  0  0  0  0  0  0  0  0  0  0  0
    4.8171   -2.7488    0.0000 C   0  0  0  0  0  0  0  0  0  0  0  0
    2.5855   -2.7488    0.0000 Cl  0  0  0  0  0  0  0  0  0  0  0  0
    3.6129   -3.1434    0.0000 C   0  0  0  0  0  0  0  0  0  0  0  0
    0.8777   -4.9668    0.0000 C   0  0  0  0  0  0  0  0  0  0  0  0
    1.3131   -3.1434    0.0000 Cl  0  0  0  0  0  0  0  0  0  0  0  0
    6.0895   -0.8641    0.0000 C   0  0  0  0  0  0  0  0  0  0  0  0
    3.6129   -1.0070    0.0000 Cl  0  0  0  0  0  0  0  0  0  0  0  0
    4.8171   -4.2116    0.0000 C   0  0  0  0  0  0  0  0  0  0  0  0
    3.2727   -4.8852    0.0000 Cl  0  0  0  0  0  0  0  0  0  0  0  0
    5.5928   -2.7488    0.0000 Cl  0  0  0  0  0  0  0  0  0  0  0  0
    4.3953   -3.1434    0.0000 Cl  0  0  0  0  0  0  0  0  0  0  0  0
    0.0000   -4.3341    0.0000 Cl  0  0  0  0  0  0  0  0  0  0  0  0
    0.6668   -5.9398    0.0000 Cl  0  0  0  0  0  0  0  0  0  0  0  0
    6.3616   -0.0000    0.0000 Cl  0  0  0  0  0  0  0  0  0  0  0  0
    6.8039   -1.4764    0.0000 Cl  0  0  0  0  0  0  0  0  0  0  0  0
    5.5656   -4.2116    0.0000 Cl  0  0  0  0  0  0  0  0  0  0  0  0
  1  2  1  0  0  0  0 
  1  3  1  0  0  0  0 
  1  4  1  0  0  0  0 
  1  5  1  0  0  0  0 
  2  6  1  0  0  0  0 
  2  7  1  0  0  0  0 
  2  8  1  0  0  0  0 
  9  3  1  0  0  0  0 
  3 10  1  0  0  0  0 
  3 11  1  0  0  0  0 
  9  4  1  0  0  0  0 
  4 12  1  0  0  0  0 
  4 13  1  0  0  0  0 
 14  6  1  0  0  0  0 
  6 15  1  0  0  0  0 
  6 10  1  0  0  0  0 
 14  7  1  0  0  0  0 
  7 16  1  0  0  0  0 
  7 12  1  0  0  0  0 
  9 14  1  0  0  0  0 
  9 17  1  0  0  0  0 
 10 18  1  0  0  0  0 
 10 19  1  0  0  0  0 
 12 20  1  0  0  0  0 
 12 21  1  0  0  0  0 
 14 22  1  0  0  0  0 
M  END
> <Name>
MIREX

> <Source>
DSSTox2DMolFile

> <Tox>
-6.097

> <CAS>
2385-85-5

$$$$

  CDK

 15 14  0  0  0  0  0  0  0  0999 V2000
    0.0000    0.0000    0.0000 C   0  0  0  0  0  0  0  0  0  0  0  0
    1.5200    0.0000    0.0000 C   0  0  0  0  0  0  0  0  0  0  0  0
    2.1200    0.9200    1.0800 C   0  0  0  0  0  0  0  0  0  0  0  0
    3.6400    0.9600    1.0400 C   0  0  0  0  0  0  0  0  0  0  0  0
    4.2200    1.9000    2.1000 C   0  0  0  0  0  0  0  0  0  0  0  0
    5.7600    1.9400    2.0600 C   0  0  0  0  0  0  0  0  0  0  0  0
    6.3400    2.8600    3.1200 C   0  0  0  0  0  0  0  0  0  0  0  0
    7.8800    2.9000    3.1000 C   0  0  0  0  0  0  0  0  0  0  0  0
    8.4600    3.8200    4.1600 C   0  0  0  0  0  0  0  0  0  0  0  0
   10.0000    3.8600    4.1200 C   0  0  0  0  0  0  0  0  0  0  0  0
   10.5800    4.9400    5.0400 C   0  0  0  0  0  0  0  0  0  0  0  0
   11.7800    5.6000    4.4600 C   0  0  0  0  0  0  0  0  0  0  0  0
   11.7400    6.1200    3.3800 O   0  0  0  0  0  0  0  0  0  0  0  0
   12.8800    5.5600    5.2200 O   0  0  0  0  0  0  0  0  0  0  0  0
   13.9400    6.2200    4.5600 O   0  0  0  0  0  0  0  0  0  0  0  0
  1  2  1  0  0  0  0 
  2  3  1  0  0  0  0 
  3  4  1  0  0  0  0 
  4  5  1  0  0  0  0 
  5  6  1  0  0  0  0 
  6  7  1  0  0  0  0 
  7  8  1  0  0  0  0 
  8  9  1  0  0  0  0 
  9 10  1  0  0  0  0 
 10 11  1  0  0  0  0 
 11 12  1  0  0  0  0 
 12 13  2  0  0  0  0 
 12 14  1  0  0  0  0 
 14 15  1  0  0  0  0 
M  END
> <Name>
DODECANEPEROXOIC ACID

> <Source>
NIH3DMolFile

> <Tox>
-3.602

> <CAS>
2388-12-7

$$$$

  CDK

 12 12  0  0  0  0  0  0  0  0999 V2000
    1.8146   -3.8135    0.0000 C   0  0  0  0  0  0  0  0  0  0  0  0
    1.1521   -2.6614    0.0000 C   0  0  0  0  0  0  0  0  0  0  0  0
    2.3042   -1.9989    0.0000 C   0  0  0  0  0  0  0  0  0  0  0  0
    0.0000   -3.3239    0.0000 C   0  0  0  0  0  0  0  0  0  0  0  0
    0.4896   -1.5093    0.0000 C   0  0  0  0  0  0  0  0  0  0  0  0
    2.3042   -0.6682    0.0000 C   0  0  0  0  0  0  0  0  0  0  0  0
    3.4563   -2.6614    0.0000 C   0  0  0  0  0  0  0  0  0  0  0  0
    3.4563   -0.0000    0.0000 C   0  0  0  0  0  0  0  0  0  0  0  0
    1.1521   -0.0000    0.0000 O   0  0  0  0  0  0  0  0  0  0  0  0
    4.6085   -1.9989    0.0000 C   0  0  0  0  0  0  0  0  0  0  0  0
    4.6085   -0.6682    0.0000 C   0  0  0  0  0  0  0  0  0  0  0  0
    5.7606   -2.6614    0.0000 C   0  0  0  0  0  0  0  0  0  0  0  0
  1  2  1  0  0  0  0 
  2  3  1  0  0  0  0 
  2  4  1  0  0  0  0 
  2  5  1  0  0  0  0 
  3  6  2  0  0  0  0 
  3  7  1  0  0  0  0 
  6  8  1  0  0  0  0 
  6  9  1  0  0  0  0 
 10  7  2  0  0  0  0 
  8 11  2  0  0  0  0 
 11 10  1  0  0  0  0 
 10 12  1  0  0  0  0 
M  END
> <Name>
2-(TERT-BUTYL)-4-METHYLPHENOL

> <Source>
DSSTox2DMolFile

> <Tox>
-1.602

> <CAS>
2409-55-4

$$$$

  CDK

 10 10  0  0  0  0  0  0  0  0999 V2000
    1.3296   -0.0000    0.0000 O   0  0  0  0  0  0  0  0  0  0  0  0
    1.9943   -1.1541    0.0000 C   0  0  0  0  0  0  0  0  0  0  0  0
    3.3239   -1.1541    0.0000 C   0  0  0  0  0  0  0  0  0  0  0  0
    1.3296   -2.3081    0.0000 C   0  0  0  0  0  0  0  0  0  0  0  0
    3.9887   -0.0000    0.0000 C   0  0  0  0  0  0  0  0  0  0  0  0
    3.9887   -2.3081    0.0000 C   0  0  0  0  0  0  0  0  0  0  0  0
    1.9943   -3.4568    0.0000 C   0  0  0  0  0  0  0  0  0  0  0  0
    0.0000   -2.3081    0.0000 C   0  0  0  0  0  0  0  0  0  0  0  0
    5.3182   -2.3081    0.0000 C   0  0  0  0  0  0  0  0  0  0  0  0
    3.3239   -3.4568    0.0000 C   0  0  0  0  0  0  0  0  0  0  0  0
  1  2  1  0  0  0  0 
  2  3  2  0  0  0  0 
  2  4  1  0  0  0  0 
  3  5  1  0  0  0  0 
  3  6  1  0  0  0  0 
  7  4  2  0  0  0  0 
  4  8  1  0  0  0  0 
  6  9  1  0  0  0  0 
  6 10  2  0  0  0  0 
 10  7  1  0  0  0  0 
M  END
> <Name>
2,3,6-TRIMETHYLPHENOL

> <Source>
DSSTox2DMolFile

> <Tox>
-1.460

> <CAS>
2416-94-6

$$$$

  CDK

 13 13  0  0  0  0  0  0  0  0999 V2000
    1.4505    0.9003    0.0000 C   0  0  0  0  0  0  0  0  0  0  0  0
    2.0007    1.7506    0.0000 O   0  0  0  0  0  0  0  0  0  0  0  0
    0.5002    0.9003    0.0000 N   0  0  0  0  0  0  0  0  0  0  0  0
    1.9506    0.0000    0.0000 O   0  0  0  0  0  0  0  0  0  0  0  0
    3.0010    1.7506    0.0000 C   0  0  0  0  0  0  0  0  0  0  0  0
    0.0000    0.0000    0.0000 C   0  0  0  0  0  0  0  0  0  0  0  0
    3.5012    2.6009    0.0000 C   0  0  0  0  0  0  0  0  0  0  0  0
    3.5012    0.9003    0.0000 C   0  0  0  0  0  0  0  0  0  0  0  0
    4.5015    2.6009    0.0000 C   0  0  0  0  0  0  0  0  0  0  0  0
    4.5015    0.9003    0.0000 C   0  0  0  0  0  0  0  0  0  0  0  0
    5.0016    3.5012    0.0000 C   0  0  0  0  0  0  0  0  0  0  0  0
    5.0016    1.7506    0.0000 C   0  0  0  0  0  0  0  0  0  0  0  0
    6.0020    1.7506    0.0000 C   0  0  0  0  0  0  0  0  0  0  0  0
  1  2  1  0  0  0  0 
  1  3  1  0  0  0  0 
  1  4  2  0  0  0  0 
  2  5  1  0  0  0  0 
  3  6  1  0  0  0  0 
  7  5  2  0  0  0  0 
  5  8  1  0  0  0  0 
  9  7  1  0  0  0  0 
  8 10  2  0  0  0  0 
  9 11  1  0  0  0  0 
 12  9  2  0  0  0  0 
 10 12  1  0  0  0  0 
 12 13  1  0  0  0  0 
M  END
> <Name>
3,4-DIMEPHENYL N-METHYLCARBAMATE

> <Source>
NIST2DMolFile

> <Tox>
-3.238

> <CAS>
2425-10-7

$$$$

  CDK

 15 14  0  0  0  0  0  0  0  0999 V2000
    1.1557   -0.6741    0.0000 C   0  0  0  0  0  0  0  0  0  0  0  0
    2.2953   -0.0000    0.0000 C   0  0  0  0  0  0  0  0  0  0  0  0
    0.0000   -0.0000    0.0000 Cl  0  0  0  0  0  0  0  0  0  0  0  0
    3.4349   -0.6741    0.0000 C   0  0  0  0  0  0  0  0  0  0  0  0
    4.5745   -0.0000    0.0000 C   0  0  0  0  0  0  0  0  0  0  0  0
    5.7301   -0.6741    0.0000 C   0  0  0  0  0  0  0  0  0  0  0  0
    6.8697   -0.0000    0.0000 C   0  0  0  0  0  0  0  0  0  0  0  0
    8.0254   -0.6741    0.0000 C   0  0  0  0  0  0  0  0  0  0  0  0
    9.1811   -0.0000    0.0000 C   0  0  0  0  0  0  0  0  0  0  0  0
   10.3207   -0.6741    0.0000 C   0  0  0  0  0  0  0  0  0  0  0  0
   11.4763   -0.0000    0.0000 C   0  0  0  0  0  0  0  0  0  0  0  0
   12.6159   -0.6741    0.0000 C   0  0  0  0  0  0  0  0  0  0  0  0
   13.7555   -0.0000    0.0000 C   0  0  0  0  0  0  0  0  0  0  0  0
   14.8951   -0.6741    0.0000 C   0  0  0  0  0  0  0  0  0  0  0  0
   16.0508   -0.0000    0.0000 C   0  0  0  0  0  0  0  0  0  0  0  0
  1  2  1  0  0  0  0 
  1  3  1  0  0  0  0 
  2  4  1  0  0  0  0 
  4  5  1  0  0  0  0 
  5  6  1  0  0  0  0 
  6  7  1  0  0  0  0 
  7  8  1  0  0  0  0 
  8  9  1  0  0  0  0 
  9 10  1  0  0  0  0 
 10 11  1  0  0  0  0 
 11 12  1  0  0  0  0 
 12 13  1  0  0  0  0 
 13 14  1  0  0  0  0 
 14 15  1  0  0  0  0 
M  END
> <Name>
1-CHLOROTETRADECANE

> <Source>
DSSTox2DMolFile

> <Tox>
-3.139

> <CAS>
2425-54-9

$$$$

  CDK

  7  6  0  0  0  0  0  0  0  0999 V2000
    0.0000    0.0000    0.0000 C   0  0  0  0  0  0  0  0  0  0  0  0
   -0.1800    1.4800    0.2800 C   0  0  0  0  0  0  0  0  0  0  0  0
    1.1000    2.2000    0.1200 N   0  0  0  0  0  0  0  0  0  0  0  0
   -1.2800    2.1400   -0.5600 C   0  0  0  0  0  0  0  0  0  0  0  0
   -0.3200    1.7800    1.7800 C   0  0  0  0  0  0  0  0  0  0  0  0
    2.2600    1.6000    0.5000 C   0  0  0  0  0  0  0  0  0  0  0  0
    3.3200    2.1800    0.3800 O   0  0  0  0  0  0  0  0  0  0  0  0
  1  2  1  0  0  0  0 
  2  3  1  0  0  0  0 
  2  4  1  0  0  0  0 
  2  5  1  0  0  0  0 
  3  6  1  0  0  0  0 
  6  7  2  0  0  0  0 
M  END
> <Name>
N-tert-Butylformamide

> <Source>
NIH3DMolFile

> <Tox>
-0.569

> <CAS>
2425-74-3

$$$$

  CDK

  9  9  0  0  0  0  0  0  0  0999 V2000
    5.3176   -2.4839    0.0000 C   0  0  0  0  0  0  0  0  0  0  0  0
    3.9899   -2.4839    0.0000 O   0  0  0  0  0  0  0  0  0  0  0  0
    5.9885   -1.3347    0.0000 C   0  0  0  0  0  0  0  0  0  0  0  0
    3.3261   -1.3347    0.0000 C   0  0  0  0  0  0  0  0  0  0  0  0
    5.9885   -0.0000    0.0000 C   0  0  0  0  0  0  0  0  0  0  0  0
    7.1377   -0.6638    0.0000 O   0  0  0  0  0  0  0  0  0  0  0  0
    1.9985   -1.3347    0.0000 C   0  0  0  0  0  0  0  0  0  0  0  0
    1.3276   -0.1784    0.0000 C   0  0  0  0  0  0  0  0  0  0  0  0
    0.0000   -0.1784    0.0000 C   0  0  0  0  0  0  0  0  0  0  0  0
  1  2  1  0  0  0  0 
  1  3  1  0  0  0  0 
  2  4  1  0  0  0  0 
  3  5  1  0  0  0  0 
  3  6  1  0  0  0  0 
  4  7  1  0  0  0  0 
  5  6  1  0  0  0  0 
  7  8  1  0  0  0  0 
  8  9  1  0  0  0  0 
M  END
> <Name>
GLYCIDYL N-BUTYL ETHER

> <Source>
DSSTox2DMolFile

> <Tox>
0.505

> <CAS>
2426-08-6

$$$$

  CDK

  8  7  0  0  0  0  0  0  0  0999 V2000
    3.2736    0.0181   -0.0004 C   0  0  0  0  0  0  0  0  0  0  0  0
    2.0247   -0.7151    0.0016 C   0  0  0  0  0  0  0  0  0  0  0  0
    4.2746    0.6025   -0.0021 N   0  0  0  0  0  0  0  0  0  0  0  0
    0.8299    0.2308    0.0016 C   0  0  0  0  0  0  0  0  0  0  0  0
   -0.4735   -0.5523    0.0001 C   0  0  0  0  0  0  0  0  0  0  0  0
   -1.6739    0.3789    0.0020 C   0  0  0  0  0  0  0  0  0  0  0  0
   -2.9780   -0.4158   -0.0030 C   0  0  0  0  0  0  0  0  0  0  0  0
   -4.1982    0.4094   -0.0003 N   0  0  0  0  0  0  0  0  0  0  0  0
  1  2  1  0  0  0  0 
  1  3  3  0  0  0  0 
  2  4  1  0  0  0  0 
  4  5  1  0  0  0  0 
  5  6  1  0  0  0  0 
  6  7  1  0  0  0  0 
  7  8  1  0  0  0  0 
M  END
> <Name>
6-Aminohexanenitrile

> <Source>
DougDB3DMolFile

> <Tox>
-0.745

> <CAS>
2432-74-8

$$$$

  CDK

 13 12  0  0  0  0  0  0  0  0999 V2000
    0.0000   -1.3277    0.0000 C   0  0  0  0  0  0  0  0  0  0  0  0
    1.1479   -0.6638    0.0000 C   0  0  0  0  0  0  0  0  0  0  0  0
    2.3096   -1.3277    0.0000 C   0  0  0  0  0  0  0  0  0  0  0  0
    3.4575   -0.6638    0.0000 C   0  0  0  0  0  0  0  0  0  0  0  0
    4.6053   -1.3277    0.0000 C   0  0  0  0  0  0  0  0  0  0  0  0
    5.7670   -0.6638    0.0000 C   0  0  0  0  0  0  0  0  0  0  0  0
    6.9149   -1.3277    0.0000 C   0  0  0  0  0  0  0  0  0  0  0  0
    8.0628   -0.6638    0.0000 C   0  0  0  0  0  0  0  0  0  0  0  0
    9.2245   -1.3277    0.0000 C   0  0  0  0  0  0  0  0  0  0  0  0
   10.3724   -0.6638    0.0000 C   0  0  0  0  0  0  0  0  0  0  0  0
   11.5202   -1.3277    0.0000 C   0  0  0  0  0  0  0  0  0  0  0  0
   12.6819   -0.6638    0.0000 C   0  0  0  0  0  0  0  0  0  0  0  0
   13.8298   -0.0000    0.0000 N   0  0  0  0  0  0  0  0  0  0  0  0
  1  2  1  0  0  0  0 
  2  3  1  0  0  0  0 
  3  4  1  0  0  0  0 
  4  5  1  0  0  0  0 
  5  6  1  0  0  0  0 
  6  7  1  0  0  0  0 
  7  8  1  0  0  0  0 
  8  9  1  0  0  0  0 
  9 10  1  0  0  0  0 
 10 11  1  0  0  0  0 
 11 12  1  0  0  0  0 
 12 13  3  0  0  0  0 
M  END
> <Name>
LAURONITRILE

> <Source>
DSSTox2DMolFile

> <Tox>
-2.627

> <CAS>
2437-25-4

$$$$

  CDK

 13 12  0  0  0  0  0  0  0  0999 V2000
    0.0000   -0.0000    0.0000 C   0  0  0  0  0  0  0  0  0  0  0  0
    1.1737   -0.6427    0.0000 C   0  0  0  0  0  0  0  0  0  0  0  0
    2.3334   -0.0000    0.0000 C   0  0  0  0  0  0  0  0  0  0  0  0
    3.5071   -0.6427    0.0000 C   0  0  0  0  0  0  0  0  0  0  0  0
    4.6528   -0.0000    0.0000 C   0  0  0  0  0  0  0  0  0  0  0  0
    5.8265   -0.6427    0.0000 C   0  0  0  0  0  0  0  0  0  0  0  0
    6.9862   -0.0000    0.0000 C   0  0  0  0  0  0  0  0  0  0  0  0
    8.1460   -0.6427    0.0000 C   0  0  0  0  0  0  0  0  0  0  0  0
    9.3197   -0.0000    0.0000 C   0  0  0  0  0  0  0  0  0  0  0  0
   10.4654   -0.6427    0.0000 C   0  0  0  0  0  0  0  0  0  0  0  0
   11.6391   -0.0000    0.0000 C   0  0  0  0  0  0  0  0  0  0  0  0
   12.7988   -0.6427    0.0000 C   0  0  0  0  0  0  0  0  0  0  0  0
   13.9725   -0.0000    0.0000 C   0  0  0  0  0  0  0  0  0  0  0  0
  1  2  2  0  0  0  0 
  2  3  1  0  0  0  0 
  3  4  1  0  0  0  0 
  4  5  1  0  0  0  0 
  5  6  1  0  0  0  0 
  6  7  1  0  0  0  0 
  7  8  1  0  0  0  0 
  8  9  1  0  0  0  0 
  9 10  1  0  0  0  0 
 10 11  1  0  0  0  0 
 11 12  1  0  0  0  0 
 12 13  1  0  0  0  0 
M  END
> <Name>
1-TRIDECENE

> <Source>
DSSTox2DMolFile

> <Tox>
-1.195

> <CAS>
2437-56-1

$$$$

  CDK

 12 12  0  0  0  0  0  0  0  0999 V2000
    0.8087    2.2704    1.1904 O   0  0  0  0  0  0  0  0  0  0  0  0
    0.4856    1.8372   -0.0580 C   0  0  0  0  0  0  0  0  0  0  0  0
    0.9230    2.3786   -1.0770 O   0  0  0  0  0  0  0  0  0  0  0  0
   -0.4138    0.6917   -0.0324 C   0  0  0  0  0  0  0  0  0  0  0  0
    0.0799   -0.6127   -0.0088 C   0  0  0  0  0  0  0  0  0  0  0  0
   -1.7905    0.9164   -0.0324 C   0  0  0  0  0  0  0  0  0  0  0  0
    1.5496   -0.8821   -0.0094 C   0  0  0  0  0  0  0  0  0  0  0  0
   -0.8032   -1.6923    0.0150 C   0  0  0  0  0  0  0  0  0  0  0  0
   -2.6734   -0.1633   -0.0086 C   0  0  0  0  0  0  0  0  0  0  0  0
    2.0020   -1.6622   -1.2571 C   0  0  0  0  0  0  0  0  0  0  0  0
    2.0120   -1.6143    1.2634 C   0  0  0  0  0  0  0  0  0  0  0  0
   -2.1798   -1.4676    0.0150 C   0  0  0  0  0  0  0  0  0  0  0  0
  1  2  1  0  0  0  0 
  3  2  2  0  0  0  0 
  4  2  1  0  0  0  0 
  5  4  1  0  0  0  0 
  4  6  2  0  0  0  0 
  7  5  1  0  0  0  0 
  5  8  2  0  0  0  0 
  6  9  1  0  0  0  0 
  7 10  1  0  0  0  0 
  7 11  1  0  0  0  0 
  8 12  1  0  0  0  0 
 12  9  2  0  0  0  0 
M  END
> <Name>
O-ISOPROPYLBENZOIC ACID

> <Source>
Chemidplus3DMolFile

> <Tox>
-3.460

> <CAS>
2438-04-2

$$$$

  CDK

 15 16  0  0  0  0  0  0  0  0999 V2000
    3.4434    2.0461    0.0000 O   0  0  0  0  0  0  0  0  0  0  0  0
    2.5951    1.4971    0.0000 C   0  0  0  0  0  0  0  0  0  0  0  0
    4.2918    1.5471    0.0000 C   0  0  0  0  0  0  0  0  0  0  0  0
    1.7467    1.9962    0.0000 C   0  0  0  0  0  0  0  0  0  0  0  0
    2.5951    0.5490    0.0000 C   0  0  0  0  0  0  0  0  0  0  0  0
    4.2918    0.4990    0.0000 C   0  0  0  0  0  0  0  0  0  0  0  0
    5.1901    2.0461    0.0000 C   0  0  0  0  0  0  0  0  0  0  0  0
    0.8484    1.4971    0.0000 C   0  0  0  0  0  0  0  0  0  0  0  0
    1.7467    0.0499    0.0000 C   0  0  0  0  0  0  0  0  0  0  0  0
    5.1901    0.0499    0.0000 C   0  0  0  0  0  0  0  0  0  0  0  0
    6.0385    1.5471    0.0000 C   0  0  0  0  0  0  0  0  0  0  0  0
    0.8484    0.4990    0.0000 C   0  0  0  0  0  0  0  0  0  0  0  0
    6.0385    0.5490    0.0000 C   0  0  0  0  0  0  0  0  0  0  0  0
    0.0000    0.0000    0.0000 Cl  0  0  0  0  0  0  0  0  0  0  0  0
    6.9368    0.0499    0.0000 Cl  0  0  0  0  0  0  0  0  0  0  0  0
  1  2  1  0  0  0  0 
  1  3  1  0  0  0  0 
  4  2  2  0  0  0  0 
  2  5  1  0  0  0  0 
  6  3  2  0  0  0  0 
  3  7  1  0  0  0  0 
  8  4  1  0  0  0  0 
  5  9  2  0  0  0  0 
 10  6  1  0  0  0  0 
  7 11  2  0  0  0  0 
 12  8  2  0  0  0  0 
  9 12  1  0  0  0  0 
 13 10  2  0  0  0  0 
 11 13  1  0  0  0  0 
 12 14  1  0  0  0  0 
 13 15  1  0  0  0  0 
M  END
> <Name>
4,4'-Dichlorodiphenyl ether

> <Source>
NIST2DMolFile

> <Tox>
-3.305

> <CAS>
2444-89-5

$$$$

  CDK

  7  7  0  0  0  0  0  0  0  0999 V2000
    0.4096    0.6883   -0.3361 C   0  0  0  0  0  0  0  0  0  0  0  0
    0.4081   -0.6893    0.3369 C   0  0  0  0  0  0  0  0  0  0  0  0
   -0.9795    1.2252    0.0106 C   0  0  0  0  0  0  0  0  0  0  0  0
    1.5251    1.6075    0.1374 C   0  0  0  0  0  0  0  0  0  0  0  0
   -0.9845   -1.2225   -0.0033 C   0  0  0  0  0  0  0  0  0  0  0  0
    1.5186   -1.6127   -0.1400 C   0  0  0  0  0  0  0  0  0  0  0  0
   -1.8975    0.0034   -0.0055 C   0  0  0  0  0  0  0  0  0  0  0  0
  1  2  1  0  0  0  0 
  1  3  1  0  0  0  0 
  1  4  1  0  0  0  0 
  2  5  1  0  0  0  0 
  2  6  1  0  0  0  0 
  3  7  1  0  0  0  0 
  5  7  1  0  0  0  0 
M  END
> <Name>
1,2-DIMETHYLCYCLOPENTANE

> <Source>
Chemidplus3DMolFile

> <Tox>
1.674

> <CAS>
2452-99-5

$$$$

  CDK

 19 18  0  0  0  0  0  0  0  0999 V2000
    6.4763    1.4178    0.0000 C   0  0  0  0  0  0  0  0  0  0  0  0
    5.7496    1.0272    0.0000 C   0  0  0  0  0  0  0  0  0  0  0  0
    5.0229    0.6365    0.0000 C   0  0  0  0  0  0  0  0  0  0  0  0
    4.2963    0.2459    0.0000 C   0  0  0  0  0  0  0  0  0  0  0  0
    3.5696   -0.1447    0.0000 C   0  0  0  0  0  0  0  0  0  0  0  0
    2.8429   -0.5353    0.0000 C   0  0  0  0  0  0  0  0  0  0  0  0
    2.1163   -0.9259    0.0000 C   0  0  0  0  0  0  0  0  0  0  0  0
    1.3896   -1.3165    0.0000 C   0  0  0  0  0  0  0  0  0  0  0  0
    0.6629   -1.7071    0.0000 C   0  0  0  0  0  0  0  0  0  0  0  0
   -0.0637   -2.0977    0.0000 O   0  0  0  0  0  0  0  0  0  0  0  0
   -0.7654   -1.6637    0.0000 C   0  0  0  0  0  0  0  0  0  0  0  0
   -1.4670   -1.2297    0.0000 C   0  0  0  0  0  0  0  0  0  0  0  0
   -2.1686   -0.7957    0.0000 C   0  0  0  0  0  0  0  0  0  0  0  0
   -2.8702   -0.3617    0.0000 C   0  0  0  0  0  0  0  0  0  0  0  0
   -3.5718    0.0723    0.0000 C   0  0  0  0  0  0  0  0  0  0  0  0
   -4.2734    0.5063    0.0000 C   0  0  0  0  0  0  0  0  0  0  0  0
   -4.9750    0.9404    0.0000 C   0  0  0  0  0  0  0  0  0  0  0  0
   -5.6766    1.3744    0.0000 C   0  0  0  0  0  0  0  0  0  0  0  0
   -6.3783    1.8084    0.0000 C   0  0  0  0  0  0  0  0  0  0  0  0
  1  2  1  0  0  0  0 
  2  3  1  0  0  0  0 
  3  4  1  0  0  0  0 
  4  5  1  0  0  0  0 
  5  6  1  0  0  0  0 
  6  7  1  0  0  0  0 
  7  8  1  0  0  0  0 
  8  9  1  0  0  0  0 
  9 10  1  0  0  0  0 
 10 11  1  0  0  0  0 
 11 12  1  0  0  0  0 
 12 13  1  0  0  0  0 
 13 14  1  0  0  0  0 
 14 15  1  0  0  0  0 
 15 16  1  0  0  0  0 
 16 17  1  0  0  0  0 
 17 18  1  0  0  0  0 
 18 19  1  0  0  0  0 
M  END
> <Name>
DINONYL ETHER

> <Source>
Smiles

> <Tox>
-4.279

> <CAS>
2456-27-1

$$$$

  CDK

 11 11  0  0  0  0  0  0  0  0999 V2000
    4.6072   -0.0000    0.0000 O   0  0  0  0  0  0  0  0  0  0  0  0
    3.4554   -0.6680    0.0000 C   0  0  0  0  0  0  0  0  0  0  0  0
    3.4554   -1.9984    0.0000 C   0  0  0  0  0  0  0  0  0  0  0  0
    2.3036   -0.0000    0.0000 C   0  0  0  0  0  0  0  0  0  0  0  0
    4.6072   -2.6607    0.0000 O   0  0  0  0  0  0  0  0  0  0  0  0
    2.3036   -2.6607    0.0000 C   0  0  0  0  0  0  0  0  0  0  0  0
    1.1518   -0.6680    0.0000 C   0  0  0  0  0  0  0  0  0  0  0  0
    5.7591   -1.9984    0.0000 C   0  0  0  0  0  0  0  0  0  0  0  0
    1.1518   -1.9984    0.0000 C   0  0  0  0  0  0  0  0  0  0  0  0
    0.0000   -0.0000    0.0000 Cl  0  0  0  0  0  0  0  0  0  0  0  0
    0.0000   -2.6607    0.0000 Cl  0  0  0  0  0  0  0  0  0  0  0  0
  1  2  1  0  0  0  0 
  2  3  2  0  0  0  0 
  2  4  1  0  0  0  0 
  3  5  1  0  0  0  0 
  3  6  1  0  0  0  0 
  7  4  2  0  0  0  0 
  5  8  1  0  0  0  0 
  6  9  2  0  0  0  0 
  9  7  1  0  0  0  0 
  7 10  1  0  0  0  0 
  9 11  1  0  0  0  0 
M  END
> <Name>
4,5-DICHLORO-2-METHOXYPHENOL

> <Source>
DSSTox2DMolFile

> <Tox>
-2.353

> <CAS>
2460-49-3

$$$$

  CDK

 10  9  0  0  0  0  0  0  0  0999 V2000
    4.3473    0.4997    0.0000 C   0  0  0  0  0  0  0  0  0  0  0  0
    3.4478    0.0000    0.0000 C   0  0  0  0  0  0  0  0  0  0  0  0
    5.1968    0.0000    0.0000 C   0  0  0  0  0  0  0  0  0  0  0  0
    2.5984    0.4997    0.0000 C   0  0  0  0  0  0  0  0  0  0  0  0
    6.0462    0.4997    0.0000 C   0  0  0  0  0  0  0  0  0  0  0  0
    1.7489    0.0000    0.0000 C   0  0  0  0  0  0  0  0  0  0  0  0
    6.9457    0.0000    0.0000 C   0  0  0  0  0  0  0  0  0  0  0  0
    0.8495    0.4997    0.0000 C   0  0  0  0  0  0  0  0  0  0  0  0
    7.7951    0.4997    0.0000 Cl  0  0  0  0  0  0  0  0  0  0  0  0
    0.0000    0.0000    0.0000 C   0  0  0  0  0  0  0  0  0  0  0  0
  1  2  1  0  0  0  0 
  1  3  1  0  0  0  0 
  2  4  1  0  0  0  0 
  3  5  1  0  0  0  0 
  4  6  1  0  0  0  0 
  5  7  1  0  0  0  0 
  6  8  1  0  0  0  0 
  7  9  1  0  0  0  0 
  8 10  1  0  0  0  0 
M  END
> <Name>
1-CHLORONONANE

> <Source>
NIST2DMolFile

> <Tox>
-0.573

> <CAS>
2473-01-0

$$$$

  CDK

 24 27  0  0  0  0  0  0  0  0999 V2000
    4.1048    3.3347   -0.0008 Br  0  0  0  0  0  0  0  0  0  0  0  0
    4.0546    1.4487    0.0001 C   0  0  0  0  0  0  0  0  0  0  0  0
    2.8644    0.7519    0.0008 C   0  0  0  0  0  0  0  0  0  0  0  0
    5.2461    0.7130   -0.0002 C   0  0  0  0  0  0  0  0  0  0  0  0
    1.5637    1.2392    0.0004 N   0  0  0  0  0  0  0  0  0  0  0  0
    2.8707   -0.6496    0.0007 C   0  0  0  0  0  0  0  0  0  0  0  0
    5.2320   -0.6963    0.0002 C   0  0  0  0  0  0  0  0  0  0  0  0
    0.6668    0.2011    0.0001 C   0  0  0  0  0  0  0  0  0  0  0  0
    1.4605   -1.0780    0.0004 C   0  0  0  0  0  0  0  0  0  0  0  0
    4.0272   -1.4002    0.0005 C   0  0  0  0  0  0  0  0  0  0  0  0
    6.8687   -1.6459   -0.0005 Br  0  0  0  0  0  0  0  0  0  0  0  0
   -0.6668    0.2010   -0.0002 C   0  0  0  0  0  0  0  0  0  0  0  0
    1.0497   -2.2183   -0.0012 O   0  0  0  0  0  0  0  0  0  0  0  0
   -1.5636    1.2392   -0.0003 N   0  0  0  0  0  0  0  0  0  0  0  0
   -1.4605   -1.0781   -0.0004 C   0  0  0  0  0  0  0  0  0  0  0  0
   -2.8645    0.7519   -0.0008 C   0  0  0  0  0  0  0  0  0  0  0  0
   -1.0496   -2.2183    0.0012 O   0  0  0  0  0  0  0  0  0  0  0  0
   -2.8707   -0.6497   -0.0007 C   0  0  0  0  0  0  0  0  0  0  0  0
   -4.0547    1.4486   -0.0002 C   0  0  0  0  0  0  0  0  0  0  0  0
   -4.0272   -1.4002   -0.0005 C   0  0  0  0  0  0  0  0  0  0  0  0
   -4.1049    3.3347    0.0008 Br  0  0  0  0  0  0  0  0  0  0  0  0
   -5.2461    0.7129    0.0001 C   0  0  0  0  0  0  0  0  0  0  0  0
   -5.2320   -0.6963   -0.0002 C   0  0  0  0  0  0  0  0  0  0  0  0
   -6.8686   -1.6459    0.0005 Br  0  0  0  0  0  0  0  0  0  0  0  0
  1  2  1  0  0  0  0 
  3  2  1  0  0  0  0 
  2  4  2  0  0  0  0 
  5  3  1  0  0  0  0 
  3  6  2  0  0  0  0 
  4  7  1  0  0  0  0 
  5  8  1  0  0  0  0 
  6  9  1  0  0  0  0 
  6 10  1  0  0  0  0 
 11  7  1  0  0  0  0 
 10  7  2  0  0  0  0 
  8 12  2  0  0  0  0 
  8  9  1  0  0  0  0 
 13  9  2  0  0  0  0 
 14 12  1  0  0  0  0 
 12 15  1  0  0  0  0 
 14 16  1  0  0  0  0 
 17 15  2  0  0  0  0 
 18 15  1  0  0  0  0 
 16 18  2  0  0  0  0 
 16 19  1  0  0  0  0 
 18 20  1  0  0  0  0 
 21 19  1  0  0  0  0 
 19 22  2  0  0  0  0 
 20 23  2  0  0  0  0 
 22 23  1  0  0  0  0 
 24 23  1  0  0  0  0 
M  END
> <Name>
C.I. VAT BLUE 5

> <Source>
Chemidplus3DMolFile

> <Tox>
-11.097

> <CAS>
2475-31-2

$$$$

  CDK

 20 22  0  0  0  0  0  0  0  0999 V2000
    2.6024    1.5014    0.0000 C   0  0  0  0  0  0  0  0  0  0  0  0
    2.6024    0.5005    0.0000 O   0  0  0  0  0  0  0  0  0  0  0  0
    3.4532    2.0018    0.0000 C   0  0  0  0  0  0  0  0  0  0  0  0
    1.7516    2.0018    0.0000 C   0  0  0  0  0  0  0  0  0  0  0  0
    3.4532    3.0028    0.0000 C   0  0  0  0  0  0  0  0  0  0  0  0
    4.3540    1.5014    0.0000 C   0  0  0  0  0  0  0  0  0  0  0  0
    1.7516    3.0028    0.0000 C   0  0  0  0  0  0  0  0  0  0  0  0
    0.8508    1.5014    0.0000 C   0  0  0  0  0  0  0  0  0  0  0  0
    2.6024    3.5032    0.0000 C   0  0  0  0  0  0  0  0  0  0  0  0
    4.3540    3.5032    0.0000 C   0  0  0  0  0  0  0  0  0  0  0  0
    4.3540    0.5005    0.0000 N   0  0  0  0  0  0  0  0  0  0  0  0
    5.2048    2.0018    0.0000 C   0  0  0  0  0  0  0  0  0  0  0  0
    0.8508    3.5032    0.0000 C   0  0  0  0  0  0  0  0  0  0  0  0
    0.0000    2.0018    0.0000 C   0  0  0  0  0  0  0  0  0  0  0  0
    2.6024    4.5041    0.0000 O   0  0  0  0  0  0  0  0  0  0  0  0
    4.3540    4.5041    0.0000 N   0  0  0  0  0  0  0  0  0  0  0  0
    5.2048    3.0028    0.0000 C   0  0  0  0  0  0  0  0  0  0  0  0
    5.2048    0.0000    0.0000 C   0  0  0  0  0  0  0  0  0  0  0  0
    0.0000    3.0028    0.0000 C   0  0  0  0  0  0  0  0  0  0  0  0
    5.2048    5.0046    0.0000 C   0  0  0  0  0  0  0  0  0  0  0  0
  1  2  2  0  0  0  0 
  3  1  1  0  0  0  0 
  1  4  1  0  0  0  0 
  5  3  2  0  0  0  0 
  6  3  1  0  0  0  0 
  7  4  2  0  0  0  0 
  4  8  1  0  0  0  0 
  9  5  1  0  0  0  0 
  5 10  1  0  0  0  0 
  6 11  1  0  0  0  0 
 12  6  2  0  0  0  0 
  7  9  1  0  0  0  0 
 13  7  1  0  0  0  0 
  8 14  2  0  0  0  0 
  9 15  2  0  0  0  0 
 10 16  1  0  0  0  0 
 10 17  2  0  0  0  0 
 11 18  1  0  0  0  0 
 17 12  1  0  0  0  0 
 19 13  2  0  0  0  0 
 14 19  1  0  0  0  0 
 16 20  1  0  0  0  0 
M  END
> <Name>
1,4-BIS(METHYLAMINO)ANTHRAQUINONE

> <Source>
NIST2DMolFile

> <Tox>
-10.699

> <CAS>
2475-44-7

$$$$

  CDK

 20 22  0  0  0  0  0  0  0  0999 V2000
    3.4553   -0.0000    0.0000 O   0  0  0  0  0  0  0  0  0  0  0  0
    3.4553   -1.3338    0.0000 C   0  0  0  0  0  0  0  0  0  0  0  0
    4.6094   -1.9972    0.0000 C   0  0  0  0  0  0  0  0  0  0  0  0
    2.3012   -1.9972    0.0000 C   0  0  0  0  0  0  0  0  0  0  0  0
    4.6094   -3.3240    0.0000 C   0  0  0  0  0  0  0  0  0  0  0  0
    5.7566   -1.3338    0.0000 C   0  0  0  0  0  0  0  0  0  0  0  0
    2.3012   -3.3240    0.0000 C   0  0  0  0  0  0  0  0  0  0  0  0
    1.1541   -1.3338    0.0000 C   0  0  0  0  0  0  0  0  0  0  0  0
    5.7566   -3.9943    0.0000 C   0  0  0  0  0  0  0  0  0  0  0  0
    3.4553   -3.9943    0.0000 C   0  0  0  0  0  0  0  0  0  0  0  0
    6.9106   -1.9972    0.0000 C   0  0  0  0  0  0  0  0  0  0  0  0
    5.7566   -0.0000    0.0000 N   0  0  0  0  0  0  0  0  0  0  0  0
    1.1541   -3.9943    0.0000 C   0  0  0  0  0  0  0  0  0  0  0  0
    0.0000   -1.9972    0.0000 C   0  0  0  0  0  0  0  0  0  0  0  0
    1.1541   -0.0000    0.0000 N   0  0  0  0  0  0  0  0  0  0  0  0
    6.9106   -3.3240    0.0000 C   0  0  0  0  0  0  0  0  0  0  0  0
    5.7566   -5.3212    0.0000 N   0  0  0  0  0  0  0  0  0  0  0  0
    3.4553   -5.3212    0.0000 O   0  0  0  0  0  0  0  0  0  0  0  0
    0.0000   -3.3240    0.0000 C   0  0  0  0  0  0  0  0  0  0  0  0
    1.1541   -5.3212    0.0000 N   0  0  0  0  0  0  0  0  0  0  0  0
  1  2  2  0  0  0  0 
  2  3  1  0  0  0  0 
  2  4  1  0  0  0  0 
  3  5  2  0  0  0  0 
  3  6  1  0  0  0  0 
  7  4  1  0  0  0  0 
  8  4  2  0  0  0  0 
  5  9  1  0  0  0  0 
  5 10  1  0  0  0  0 
 11  6  2  0  0  0  0 
  6 12  1  0  0  0  0 
 10  7  1  0  0  0  0 
  7 13  2  0  0  0  0 
 14  8  1  0  0  0  0 
  8 15  1  0  0  0  0 
  9 16  2  0  0  0  0 
  9 17  1  0  0  0  0 
 10 18  2  0  0  0  0 
 16 11  1  0  0  0  0 
 13 19  1  0  0  0  0 
 13 20  1  0  0  0  0 
 19 14  2  0  0  0  0 
M  END
> <Name>
1,4,5,8-TETRAAMINOANTHRAQUINONE

> <Source>
DSSTox2DMolFile

> <Tox>
-7.745

> <CAS>
2475-45-8

$$$$

  CDK

  7  6  0  0  0  0  0  0  0  0999 V2000
    1.9903   -2.2956    0.0000 Si  0  0  0  0  0  0  0  0  0  0  0  0
    0.6780   -2.2956    0.0000 O   0  0  0  0  0  0  0  0  0  0  0  0
    2.6683   -3.4612    0.0000 O   0  0  0  0  0  0  0  0  0  0  0  0
    2.6683   -1.1458    0.0000 O   0  0  0  0  0  0  0  0  0  0  0  0
    0.0000   -3.4612    0.0000 C   0  0  0  0  0  0  0  0  0  0  0  0
    3.9647   -3.4612    0.0000 C   0  0  0  0  0  0  0  0  0  0  0  0
    1.9744   -0.0000    0.0000 C   0  0  0  0  0  0  0  0  0  0  0  0
  1  2  1  0  0  0  0 
  1  3  1  0  0  0  0 
  1  4  1  0  0  0  0 
  2  5  1  0  0  0  0 
  3  6  1  0  0  0  0 
  4  7  1  0  0  0  0 
M  END
> <Name>
TRIMETHOXY SILANE

> <Source>
DSSTox2DMolFile

> <Tox>
1.881

> <CAS>
2487-90-3

$$$$

  CDK

 20 21  0  0  0  0  0  0  0  0999 V2000
    3.5054    1.5023    0.0000 C   0  0  0  0  0  0  0  0  0  0  0  0
    3.5054    2.5539    0.0000 C   0  0  0  0  0  0  0  0  0  0  0  0
    2.6040    1.0015    0.0000 C   0  0  0  0  0  0  0  0  0  0  0  0
    2.6040    3.0046    0.0000 C   0  0  0  0  0  0  0  0  0  0  0  0
    4.3567    3.0046    0.0000 N   0  0  0  0  0  0  0  0  0  0  0  0
    1.7527    1.5023    0.0000 C   0  0  0  0  0  0  0  0  0  0  0  0
    1.7527    2.5539    0.0000 C   0  0  0  0  0  0  0  0  0  0  0  0
    5.1579    2.5539    0.0000 N   0  0  0  0  0  0  0  0  0  0  0  0
    0.9014    1.0015    0.0000 N   0  0  0  0  0  0  0  0  0  0  0  0
    6.0092    3.0046    0.0000 C   0  0  0  0  0  0  0  0  0  0  0  0
    0.0000    1.5023    0.0000 C   0  0  0  0  0  0  0  0  0  0  0  0
    0.9014    0.0000    0.0000 C   0  0  0  0  0  0  0  0  0  0  0  0
    6.9106    2.5539    0.0000 C   0  0  0  0  0  0  0  0  0  0  0  0
    6.0092    4.0061    0.0000 C   0  0  0  0  0  0  0  0  0  0  0  0
    7.7619    2.9545    0.0000 C   0  0  0  0  0  0  0  0  0  0  0  0
    6.9106    4.5069    0.0000 C   0  0  0  0  0  0  0  0  0  0  0  0
    7.7619    4.0061    0.0000 C   0  0  0  0  0  0  0  0  0  0  0  0
    8.6132    4.5069    0.0000 N   0  0  0  0  0  0  0  0  0  0  0  0
    9.5145    4.0061    0.0000 O   0  0  0  0  0  0  0  0  0  0  0  0
    8.6132    5.5084    0.0000 O   0  0  0  0  0  0  0  0  0  0  0  0
  2  1  2  0  0  0  0 
  1  3  1  0  0  0  0 
  4  2  1  0  0  0  0 
  2  5  1  0  0  0  0 
  3  6  2  0  0  0  0 
  7  4  2  0  0  0  0 
  5  8  2  0  0  0  0 
  6  7  1  0  0  0  0 
  6  9  1  0  0  0  0 
  8 10  1  0  0  0  0 
  9 11  1  0  0  0  0 
  9 12  1  0  0  0  0 
 13 10  2  0  0  0  0 
 10 14  1  0  0  0  0 
 15 13  1  0  0  0  0 
 14 16  2  0  0  0  0 
 17 15  2  0  0  0  0 
 16 17  1  0  0  0  0 
 17 18  1  0  0  0  0 
 18 19  2  0  0  0  0 
 18 20  2  0  0  0  0 
M  END
> <Name>
4-NITRO-((4-(N-DIMETHYL)AMINOPHENYL)AZO)BENZENE

> <Source>
NIST2DMolFile

> <Tox>
-10.000

> <CAS>
2491-74-9

$$$$

  CDK

  7  6  0  0  0  0  0  0  0  0999 V2000
    2.0006   -1.3282    0.0000 P   0  0  0  0  0  0  0  0  0  0  0  0
    0.6724   -1.3282    0.0000 O   0  0  0  0  0  0  0  0  0  0  0  0
    2.0006   -2.6563    0.0000 O   0  0  0  0  0  0  0  0  0  0  0  0
    3.3287   -1.3282    0.0000 S   0  0  0  0  0  0  0  0  0  0  0  0
    2.0006   -0.0000    0.0000 Cl  0  0  0  0  0  0  0  0  0  0  0  0
    0.0000   -0.1764    0.0000 C   0  0  0  0  0  0  0  0  0  0  0  0
    0.8488   -3.3287    0.0000 C   0  0  0  0  0  0  0  0  0  0  0  0
  1  2  1  0  0  0  0 
  1  3  1  0  0  0  0 
  1  4  2  0  0  0  0 
  1  5  1  0  0  0  0 
  2  6  1  0  0  0  0 
  3  7  1  0  0  0  0 
M  END
> <Name>
O,O-DIMETHYL PHOSPHOROCHLORIDOTHIOATE

> <Source>
DSSTox2DMolFile

> <Tox>
-0.301

> <CAS>
2524-03-0

$$$$

  CDK

 21 21  0  0  0  0  0  0  0  0999 V2000
   -1.0180    0.7992    0.3382 C   0  0  0  0  0  0  0  0  0  0  0  0
   -0.3251    0.5605   -1.0018 C   0  0  0  0  0  0  0  0  0  0  0  0
   -0.5392    0.7346    1.4511 O   0  0  0  0  0  0  0  0  0  0  0  0
   -2.3365    1.1006    0.1798 O   0  0  0  0  0  0  0  0  0  0  0  0
    0.9110    1.2370   -1.0820 O   0  0  0  0  0  0  0  0  0  0  0  0
   -3.1389    1.2804    1.3476 C   0  0  0  0  0  0  0  0  0  0  0  0
    2.0384    0.5641   -0.6478 C   0  0  0  0  0  0  0  0  0  0  0  0
   -4.5720    1.5258    0.8640 C   0  0  0  0  0  0  0  0  0  0  0  0
    3.1561    1.3760   -0.3845 C   0  0  0  0  0  0  0  0  0  0  0  0
    2.1310   -0.8258   -0.5338 C   0  0  0  0  0  0  0  0  0  0  0  0
   -5.1596    0.2585    0.6192 O   0  0  0  0  0  0  0  0  0  0  0  0
    4.3612    0.7916   -0.0066 C   0  0  0  0  0  0  0  0  0  0  0  0
    3.0650    3.0487   -0.5209 Cl  0  0  0  0  0  0  0  0  0  0  0  0
    3.3409   -1.3965   -0.1525 C   0  0  0  0  0  0  0  0  0  0  0  0
   -6.4832    0.3464    0.1118 C   0  0  0  0  0  0  0  0  0  0  0  0
    4.4520   -0.5931    0.1095 C   0  0  0  0  0  0  0  0  0  0  0  0
    3.4629   -3.0643   -0.0085 Cl  0  0  0  0  0  0  0  0  0  0  0  0
   -6.9816   -1.0830   -0.0797 C   0  0  0  0  0  0  0  0  0  0  0  0
    5.9052   -1.2993    0.5690 Cl  0  0  0  0  0  0  0  0  0  0  0  0
   -8.3982   -1.0821   -0.6314 C   0  0  0  0  0  0  0  0  0  0  0  0
   -8.9136   -2.4899   -0.8277 C   0  0  0  0  0  0  0  0  0  0  0  0
  1  2  1  0  0  0  0 
  1  3  2  0  0  0  0 
  1  4  1  0  0  0  0 
  2  5  1  0  0  0  0 
  4  6  1  0  0  0  0 
  5  7  1  0  0  0  0 
  6  8  1  0  0  0  0 
  7  9  1  0  0  0  0 
  7 10  2  0  0  0  0 
  8 11  1  0  0  0  0 
  9 12  2  0  0  0  0 
  9 13  1  0  0  0  0 
 14 10  1  0  0  0  0 
 11 15  1  0  0  0  0 
 12 16  1  0  0  0  0 
 16 14  2  0  0  0  0 
 14 17  1  0  0  0  0 
 15 18  1  0  0  0  0 
 16 19  1  0  0  0  0 
 18 20  1  0  0  0  0 
 20 21  1  0  0  0  0 
M  END
> <Name>
2,4,5-T, BUTOXYETHYL ESTER

> <Source>
DougDB3DMolFile

> <Tox>
-5.824

> <CAS>
2545-59-7

$$$$

  CDK

 12 12  0  0  0  0  0  0  0  0999 V2000
    1.6761   -0.3891    0.0000 Cl  0  0  0  0  0  0  0  0  0  0  0  0
    1.2646   -1.6462    0.0000 C   0  0  0  0  0  0  0  0  0  0  0  0
    2.5067   -2.0652    0.0000 C   0  0  0  0  0  0  0  0  0  0  0  0
    0.8306   -2.9107    0.0000 Cl  0  0  0  0  0  0  0  0  0  0  0  0
    0.0000   -1.2197    0.0000 Cl  0  0  0  0  0  0  0  0  0  0  0  0
    2.9107   -3.3447    0.0000 N   0  0  0  0  0  0  0  0  0  0  0  0
    3.5991   -1.2945    0.0000 N   0  0  0  0  0  0  0  0  0  0  0  0
    4.2352   -3.3597    0.0000 S   0  0  0  0  0  0  0  0  0  0  0  0
    4.6692   -2.0951    0.0000 C   0  0  0  0  0  0  0  0  0  0  0  0
    5.9337   -1.6986    0.0000 O   0  0  0  0  0  0  0  0  0  0  0  0
    6.2181   -0.4041    0.0000 C   0  0  0  0  0  0  0  0  0  0  0  0
    7.4826   -0.0000    0.0000 C   0  0  0  0  0  0  0  0  0  0  0  0
  1  2  1  0  0  0  0 
  2  3  1  0  0  0  0 
  2  4  1  0  0  0  0 
  2  5  1  0  0  0  0 
  3  6  2  0  0  0  0 
  3  7  1  0  0  0  0 
  6  8  1  0  0  0  0 
  9  7  2  0  0  0  0 
  8  9  1  0  0  0  0 
  9 10  1  0  0  0  0 
 10 11  1  0  0  0  0 
 11 12  1  0  0  0  0 
M  END
> <Name>
ETRIDAZOLE

> <Source>
DSSTox2DMolFile

> <Tox>
-4.000

> <CAS>
2593-15-9

$$$$

  CDK

 19 19  0  0  0  0  0  0  0  0999 V2000
    1.5046   -1.1830   -0.0965 C   0  0  0  0  0  0  0  0  0  0  0  0
    1.6492   -1.8258   -1.3294 C   0  0  0  0  0  0  0  0  0  0  0  0
    1.8805   -1.8457    1.0745 C   0  0  0  0  0  0  0  0  0  0  0  0
    0.9568    0.2102   -0.0669 C   0  0  0  0  0  0  0  0  0  0  0  0
    2.1640   -3.1155   -1.3873 C   0  0  0  0  0  0  0  0  0  0  0  0
    2.3947   -3.1357    1.0092 C   0  0  0  0  0  0  0  0  0  0  0  0
    2.0212    1.2002    0.4107 C   0  0  0  0  0  0  0  0  0  0  0  0
   -0.5312    0.3752    1.0326 S   0  0  0  0  0  0  0  0  0  0  0  0
    2.5372   -3.7720   -0.2192 C   0  0  0  0  0  0  0  0  0  0  0  0
    2.7164    1.1502    1.4027 O   0  0  0  0  0  0  0  0  0  0  0  0
    2.1599    2.2405   -0.4679 O   0  0  0  0  0  0  0  0  0  0  0  0
   -2.4376    0.2879    0.0635 P   0  0  0  0  0  0  0  0  0  0  0  0
    3.0905    3.2807   -0.1919 C   0  0  0  0  0  0  0  0  0  0  0  0
   -3.8248    0.6444    1.3473 S   0  0  0  0  0  0  0  0  0  0  0  0
   -2.2055    1.2850   -1.3047 O   0  0  0  0  0  0  0  0  0  0  0  0
   -2.5152   -1.1424   -0.8790 O   0  0  0  0  0  0  0  0  0  0  0  0
    4.5031    2.9251   -0.6133 C   0  0  0  0  0  0  0  0  0  0  0  0
   -3.2631    1.5504   -2.1692 C   0  0  0  0  0  0  0  0  0  0  0  0
   -2.8096   -2.3624   -0.2827 C   0  0  0  0  0  0  0  0  0  0  0  0
  1  2  1  0  0  0  0 
  1  3  2  0  0  0  0 
  1  4  1  0  0  0  0 
  2  5  2  0  0  0  0 
  6  3  1  0  0  0  0 
  7  4  1  0  0  0  0 
  4  8  1  0  0  0  0 
  5  9  1  0  0  0  0 
  9  6  2  0  0  0  0 
  7 10  2  0  0  0  0 
  7 11  1  0  0  0  0 
  8 12  1  0  0  0  0 
 11 13  1  0  0  0  0 
 12 14  2  0  0  0  0 
 12 15  1  0  0  0  0 
 12 16  1  0  0  0  0 
 13 17  1  0  0  0  0 
 15 18  1  0  0  0  0 
 16 19  1  0  0  0  0 
M  END
> <Name>
FENTHOATE

> <Source>
DougDB3DMolFile

> <Tox>
-5.585

> <CAS>
2597-03-7

$$$$

  CDK

  9  9  0  0  0  0  0  0  0  0999 V2000
    2.4253    2.0988    0.0000 C   0  0  0  0  0  0  0  0  0  0  0  0
    2.4253    0.6996    0.0000 C   0  0  0  0  0  0  0  0  0  0  0  0
    3.6380    2.7984    0.0000 C   0  0  0  0  0  0  0  0  0  0  0  0
    3.6380    0.0000    0.0000 C   0  0  0  0  0  0  0  0  0  0  0  0
    1.2127    0.0000    0.0000 C   0  0  0  0  0  0  0  0  0  0  0  0
    4.8506    2.0988    0.0000 C   0  0  0  0  0  0  0  0  0  0  0  0
    4.8506    0.6996    0.0000 C   0  0  0  0  0  0  0  0  0  0  0  0
    0.0000    0.6996    0.0000 C   0  0  0  0  0  0  0  0  0  0  0  0
    6.0633    2.7984    0.0000 O   0  0  0  0  0  0  0  0  0  0  0  0
  1  2  2  0  0  0  0 
  1  3  1  0  0  0  0 
  2  4  1  0  0  0  0 
  2  5  1  0  0  0  0 
  6  3  2  0  0  0  0 
  4  7  2  0  0  0  0 
  5  8  2  0  0  0  0 
  7  6  1  0  0  0  0 
  6  9  1  0  0  0  0 
M  END
> <Name>
4-Vinylphenol

> <Source>
IndexNet2DMolFile

> <Tox>
-1.854

> <CAS>
2628-17-3

$$$$

  CDK

 13 13  0  0  0  0  0  0  0  0999 V2000
    1.4472    0.8983    0.0000 C   0  0  0  0  0  0  0  0  0  0  0  0
    1.9961    1.7466    0.0000 O   0  0  0  0  0  0  0  0  0  0  0  0
    0.4990    0.8983    0.0000 N   0  0  0  0  0  0  0  0  0  0  0  0
    1.9462    0.0000    0.0000 O   0  0  0  0  0  0  0  0  0  0  0  0
    2.9942    1.7466    0.0000 C   0  0  0  0  0  0  0  0  0  0  0  0
    0.0000    0.0000    0.0000 C   0  0  0  0  0  0  0  0  0  0  0  0
    3.4932    2.5950    0.0000 C   0  0  0  0  0  0  0  0  0  0  0  0
    3.4932    0.8983    0.0000 C   0  0  0  0  0  0  0  0  0  0  0  0
    4.4913    2.5950    0.0000 C   0  0  0  0  0  0  0  0  0  0  0  0
    4.4913    0.8983    0.0000 C   0  0  0  0  0  0  0  0  0  0  0  0
    4.9903    3.4932    0.0000 C   0  0  0  0  0  0  0  0  0  0  0  0
    4.9903    1.7466    0.0000 C   0  0  0  0  0  0  0  0  0  0  0  0
    4.9903    0.0000    0.0000 C   0  0  0  0  0  0  0  0  0  0  0  0
  1  2  1  0  0  0  0 
  1  3  1  0  0  0  0 
  1  4  2  0  0  0  0 
  2  5  1  0  0  0  0 
  3  6  1  0  0  0  0 
  7  5  2  0  0  0  0 
  5  8  1  0  0  0  0 
  9  7  1  0  0  0  0 
  8 10  2  0  0  0  0 
  9 11  1  0  0  0  0 
 12  9  2  0  0  0  0 
 10 12  1  0  0  0  0 
 10 13  1  0  0  0  0 
M  END
> <Name>
N-ME-3,5-DIMETHYLPHENYL CARBAMATE

> <Source>
NIST2DMolFile

> <Tox>
-3.444

> <CAS>
2655-14-3

$$$$

  CDK

 12 12  0  0  0  0  0  0  0  0999 V2000
    0.6647   -2.3064    0.0000 O   0  0  0  0  0  0  0  0  0  0  0  0
    0.0000   -1.1499    0.0000 C   0  0  0  0  0  0  0  0  0  0  0  0
    1.9940   -2.3064    0.0000 C   0  0  0  0  0  0  0  0  0  0  0  0
    2.6587   -1.1499    0.0000 C   0  0  0  0  0  0  0  0  0  0  0  0
    2.6587   -3.4563    0.0000 C   0  0  0  0  0  0  0  0  0  0  0  0
    3.9880   -1.1499    0.0000 C   0  0  0  0  0  0  0  0  0  0  0  0
    3.9880   -3.4563    0.0000 C   0  0  0  0  0  0  0  0  0  0  0  0
    1.9940   -4.6062    0.0000 Cl  0  0  0  0  0  0  0  0  0  0  0  0
    4.6527   -0.0000    0.0000 Cl  0  0  0  0  0  0  0  0  0  0  0  0
    4.6527   -2.3064    0.0000 C   0  0  0  0  0  0  0  0  0  0  0  0
    5.9821   -2.3064    0.0000 O   0  0  0  0  0  0  0  0  0  0  0  0
    6.6467   -3.4563    0.0000 C   0  0  0  0  0  0  0  0  0  0  0  0
  1  2  1  0  0  0  0 
  1  3  1  0  0  0  0 
  3  4  2  0  0  0  0 
  3  5  1  0  0  0  0 
  4  6  1  0  0  0  0 
  7  5  2  0  0  0  0 
  5  8  1  0  0  0  0 
  6  9  1  0  0  0  0 
  6 10  2  0  0  0  0 
 10  7  1  0  0  0  0 
 10 11  1  0  0  0  0 
 11 12  1  0  0  0  0 
M  END
> <Name>
1,4-DICHLORO-2,5-DIMETHOXYBENZENE

> <Source>
DSSTox2DMolFile

> <Tox>
-2.523

> <CAS>
2675-77-6

$$$$

  CDK

 14 14  0  0  0  0  0  0  0  0999 V2000
    2.3117   -3.3221    0.0000 C   0  0  0  0  0  0  0  0  0  0  0  0
    2.3117   -1.9884    0.0000 O   0  0  0  0  0  0  0  0  0  0  0  0
    3.4676   -3.9768    0.0000 O   0  0  0  0  0  0  0  0  0  0  0  0
    1.1720   -3.9768    0.0000 N   0  0  0  0  0  0  0  0  0  0  0  0
    4.6154   -3.3221    0.0000 C   0  0  0  0  0  0  0  0  0  0  0  0
    0.0000   -3.3221    0.0000 C   0  0  0  0  0  0  0  0  0  0  0  0
    4.6154   -1.9884    0.0000 C   0  0  0  0  0  0  0  0  0  0  0  0
    5.7712   -3.9768    0.0000 C   0  0  0  0  0  0  0  0  0  0  0  0
    5.7712   -1.3175    0.0000 C   0  0  0  0  0  0  0  0  0  0  0  0
    6.9109   -3.3221    0.0000 C   0  0  0  0  0  0  0  0  0  0  0  0
    6.9109   -1.9884    0.0000 C   0  0  0  0  0  0  0  0  0  0  0  0
    5.7712   -0.0000    0.0000 C   0  0  0  0  0  0  0  0  0  0  0  0
    8.0830   -3.9768    0.0000 C   0  0  0  0  0  0  0  0  0  0  0  0
    8.0830   -1.3175    0.0000 C   0  0  0  0  0  0  0  0  0  0  0  0
  1  2  2  0  0  0  0 
  1  3  1  0  0  0  0 
  1  4  1  0  0  0  0 
  3  5  1  0  0  0  0 
  4  6  1  0  0  0  0 
  5  7  2  0  0  0  0 
  5  8  1  0  0  0  0 
  7  9  1  0  0  0  0 
  8 10  2  0  0  0  0 
  9 11  2  0  0  0  0 
  9 12  1  0  0  0  0 
 10 11  1  0  0  0  0 
 10 13  1  0  0  0  0 
 11 14  1  0  0  0  0 
M  END
> <Name>
N-ME-3,4,5-TRIMEPHENYL CARBAMATE

> <Source>
DSSTox2DMolFile

> <Tox>
-4.292

> <CAS>
2686-99-9

$$$$

  CDK

 14 15  0  0  0  0  0  0  0  0999 V2000
    2.5964    2.0472    0.0000 O   0  0  0  0  0  0  0  0  0  0  0  0
    1.7476    1.5479    0.0000 C   0  0  0  0  0  0  0  0  0  0  0  0
    3.4952    1.4979    0.0000 C   0  0  0  0  0  0  0  0  0  0  0  0
    0.8988    2.0472    0.0000 C   0  0  0  0  0  0  0  0  0  0  0  0
    1.7476    0.4993    0.0000 C   0  0  0  0  0  0  0  0  0  0  0  0
    3.4952    0.4993    0.0000 C   0  0  0  0  0  0  0  0  0  0  0  0
    4.3440    1.9973    0.0000 C   0  0  0  0  0  0  0  0  0  0  0  0
    0.8988    3.0458    0.0000 Cl  0  0  0  0  0  0  0  0  0  0  0  0
    0.0000    1.5479    0.0000 C   0  0  0  0  0  0  0  0  0  0  0  0
    0.8488    0.0499    0.0000 C   0  0  0  0  0  0  0  0  0  0  0  0
    4.2941    0.0000    0.0000 C   0  0  0  0  0  0  0  0  0  0  0  0
    5.1929    1.4979    0.0000 C   0  0  0  0  0  0  0  0  0  0  0  0
    0.0000    0.5992    0.0000 C   0  0  0  0  0  0  0  0  0  0  0  0
    5.1929    0.4993    0.0000 C   0  0  0  0  0  0  0  0  0  0  0  0
  1  2  1  0  0  0  0 
  1  3  1  0  0  0  0 
  4  2  2  0  0  0  0 
  2  5  1  0  0  0  0 
  6  3  2  0  0  0  0 
  3  7  1  0  0  0  0 
  4  8  1  0  0  0  0 
  9  4  1  0  0  0  0 
  5 10  2  0  0  0  0 
 11  6  1  0  0  0  0 
  7 12  2  0  0  0  0 
 13  9  2  0  0  0  0 
 10 13  1  0  0  0  0 
 14 11  2  0  0  0  0 
 12 14  1  0  0  0  0 
M  END
> <Name>
2-Chlorodiphenyl ether

> <Source>
NIST2DMolFile

> <Tox>
-2.398

> <CAS>
2689-07-8

$$$$

  CDK

 20 20  0  0  0  0  0  0  0  0999 V2000
    2.2343   -2.2343    0.0000 N   0  0  0  0  0  0  0  0  0  0  0  0
    3.4448   -1.7293    0.0000 C   0  0  0  0  0  0  0  0  0  0  0  0
    1.7293   -3.4448    0.0000 C   0  0  0  0  0  0  0  0  0  0  0  0
    1.2728   -1.2728    0.0000 N   0  0  0  0  0  0  0  0  0  0  0  0
    4.6829   -2.2343    0.0000 N   0  0  0  0  0  0  0  0  0  0  0  0
    2.2343   -4.6829    0.0000 N   0  0  0  0  0  0  0  0  0  0  0  0
    1.6255   -0.0000    0.0000 O   0  0  0  0  0  0  0  0  0  0  0  0
    0.0000   -1.6255    0.0000 O   0  0  0  0  0  0  0  0  0  0  0  0
    5.1879   -3.4448    0.0000 C   0  0  0  0  0  0  0  0  0  0  0  0
    5.6306   -1.2728    0.0000 N   0  0  0  0  0  0  0  0  0  0  0  0
    3.4448   -5.1879    0.0000 C   0  0  0  0  0  0  0  0  0  0  0  0
    1.2728   -5.6306    0.0000 N   0  0  0  0  0  0  0  0  0  0  0  0
    4.6829   -4.6829    0.0000 N   0  0  0  0  0  0  0  0  0  0  0  0
    6.9172   -1.6255    0.0000 O   0  0  0  0  0  0  0  0  0  0  0  0
    5.2916   -0.0000    0.0000 O   0  0  0  0  0  0  0  0  0  0  0  0
    0.0000   -5.2916    0.0000 O   0  0  0  0  0  0  0  0  0  0  0  0
    1.6255   -6.9172    0.0000 O   0  0  0  0  0  0  0  0  0  0  0  0
    5.6306   -5.6306    0.0000 N   0  0  0  0  0  0  0  0  0  0  0  0
    5.2916   -6.9172    0.0000 O   0  0  0  0  0  0  0  0  0  0  0  0
    6.9172   -5.2916    0.0000 O   0  0  0  0  0  0  0  0  0  0  0  0
  1  2  1  0  0  0  0 
  1  3  1  0  0  0  0 
  1  4  1  0  0  0  0 
  2  5  1  0  0  0  0 
  3  6  1  0  0  0  0 
  4  7  1  0  0  0  0 
  4  8  2  0  0  0  0 
  5  9  1  0  0  0  0 
  5 10  1  0  0  0  0 
  6 11  1  0  0  0  0 
  6 12  1  0  0  0  0 
  9 13  1  0  0  0  0 
 10 14  1  0  0  0  0 
 10 15  2  0  0  0  0 
 11 13  1  0  0  0  0 
 12 16  1  0  0  0  0 
 12 17  2  0  0  0  0 
 13 18  1  0  0  0  0 
 18 19  1  0  0  0  0 
 18 20  2  0  0  0  0 
M  CHG  1   4   1
M  CHG  1   7  -1
M  CHG  1  10   1
M  CHG  1  12   1
M  CHG  1  14  -1
M  CHG  1  16  -1
M  CHG  1  18   1
M  CHG  1  19  -1
M  END
> <Name>
OCTAHYDRO-1,3,5,7-TETRANITRO-1,3,5,7-TETRAZOC*

> <Source>
DSSTox2DMolFile

> <Tox>
-13.481

> <CAS>
2691-41-0

$$$$

  CDK

  7  6  0  0  0  0  0  0  0  0999 V2000
    1.1994    1.2573    4.6307 C   0  0  0  0  0  0  0  0  0  0  0  0
    1.7422    1.9088    5.6679 C   0  0  0  0  0  0  0  0  0  0  0  0
    1.8643    1.0593    3.3162 C   0  0  0  0  0  0  0  0  0  0  0  0
    1.0127    2.0452    6.9575 C   0  0  0  0  0  0  0  0  0  0  0  0
    3.0890    2.5358    5.6334 C   0  0  0  0  0  0  0  0  0  0  0  0
    0.9323    1.4137    2.1668 C   0  0  0  0  0  0  0  0  0  0  0  0
    1.5944    1.1782    0.8281 C   0  0  0  0  0  0  0  0  0  0  0  0
  1  2  2  0  0  0  0 
  1  3  1  0  0  0  0 
  2  4  1  0  0  0  0 
  2  5  1  0  0  0  0 
  3  6  1  0  0  0  0 
  6  7  1  0  0  0  0 
M  END
> <Name>
2-METHYL-2-HEXENE

> <Source>
NIST3DMolFile

> <Tox>
1.732

> <CAS>
2738-19-4

$$$$

  CDK

 14 16  0  0  0  0  0  0  0  0999 V2000
    1.9739   -1.1564    0.0000 N   0  0  0  0  0  0  0  0  0  0  0  0
    2.6518   -2.2996    0.0000 C   0  0  0  0  0  0  0  0  0  0  0  0
    2.6319   -0.0000    0.0000 C   0  0  0  0  0  0  0  0  0  0  0  0
    0.6580   -1.1564    0.0000 C   0  0  0  0  0  0  0  0  0  0  0  0
    3.9678   -2.2996    0.0000 C   0  0  0  0  0  0  0  0  0  0  0  0
    2.0072   -3.4560    0.0000 C   0  0  0  0  0  0  0  0  0  0  0  0
    3.9678   -0.0000    0.0000 C   0  0  0  0  0  0  0  0  0  0  0  0
    0.0000   -2.3129    0.0000 C   0  0  0  0  0  0  0  0  0  0  0  0
    4.6391   -1.1564    0.0000 N   0  0  0  0  0  0  0  0  0  0  0  0
    4.6258   -3.4560    0.0000 C   0  0  0  0  0  0  0  0  0  0  0  0
    0.7045   -3.4693    0.0000 C   0  0  0  0  0  0  0  0  0  0  0  0
    5.9750   -1.1564    0.0000 C   0  0  0  0  0  0  0  0  0  0  0  0
    5.9750   -3.4560    0.0000 C   0  0  0  0  0  0  0  0  0  0  0  0
    6.6462   -2.2996    0.0000 C   0  0  0  0  0  0  0  0  0  0  0  0
  1  2  2  0  0  0  0 
  1  3  1  0  0  0  0 
  1  4  1  0  0  0  0 
  2  5  1  0  0  0  0 
  2  6  1  0  0  0  0 
  3  7  1  0  0  0  0 
  4  8  2  0  0  0  0 
  9  5  2  0  0  0  0 
  5 10  1  0  0  0  0 
  6 11  2  0  0  0  0 
  9  7  1  0  0  0  0 
  8 11  1  0  0  0  0 
  9 12  1  0  0  0  0 
 10 13  2  0  0  0  0 
 12 14  2  0  0  0  0 
 14 13  1  0  0  0  0 
M  CHG  1   1   1
M  CHG  1   9   1
M  END
> <Name>
DIQUAT

> <Source>
DSSTox2DMolFile

> <Tox>
-8.000

> <CAS>
2764-72-9

$$$$

  CDK

 18 18  0  0  0  0  0  0  0  0999 V2000
    3.1242    2.2601    0.0000 C   0  0  0  0  0  0  0  0  0  0  0  0
    3.1242    1.2629    0.0000 C   0  0  0  0  0  0  0  0  0  0  0  0
    3.9883    2.7586    0.0000 C   0  0  0  0  0  0  0  0  0  0  0  0
    3.9883    0.7644    0.0000 C   0  0  0  0  0  0  0  0  0  0  0  0
    2.2601    0.7644    0.0000 C   0  0  0  0  0  0  0  0  0  0  0  0
    4.8525    2.2601    0.0000 C   0  0  0  0  0  0  0  0  0  0  0  0
    4.8525    1.2629    0.0000 C   0  0  0  0  0  0  0  0  0  0  0  0
    1.8944    1.6951    0.0000 C   0  0  0  0  0  0  0  0  0  0  0  0
    2.8915    0.0000    0.0000 C   0  0  0  0  0  0  0  0  0  0  0  0
    1.2629    0.5650    0.0000 N   0  0  0  0  0  0  0  0  0  0  0  0
    5.7166    2.7586    0.0000 C   0  0  0  0  0  0  0  0  0  0  0  0
    0.6315    1.3294    0.0000 C   0  0  0  0  0  0  0  0  0  0  0  0
    6.3481    3.5230    0.0000 C   0  0  0  0  0  0  0  0  0  0  0  0
    5.0519    3.5230    0.0000 C   0  0  0  0  0  0  0  0  0  0  0  0
    6.0489    1.7947    0.0000 N   0  0  0  0  0  0  0  0  0  0  0  0
    0.0000    2.0939    0.0000 O   0  0  0  0  0  0  0  0  0  0  0  0
    5.4174    1.0303    0.0000 C   0  0  0  0  0  0  0  0  0  0  0  0
    4.7527    0.2659    0.0000 O   0  0  0  0  0  0  0  0  0  0  0  0
  2  1  2  0  0  0  0 
  1  3  1  0  0  0  0 
  4  2  1  0  0  0  0 
  2  5  1  0  0  0  0 
  3  6  2  0  0  0  0 
  7  4  2  0  0  0  0 
  5  8  1  0  0  0  0 
  5  9  1  0  0  0  0 
  5 10  1  0  0  0  0 
  6  7  1  0  0  0  0 
  6 11  1  0  0  0  0 
 10 12  2  0  0  0  0 
 11 13  1  0  0  0  0 
 11 14  1  0  0  0  0 
 11 15  1  0  0  0  0 
 12 16  2  0  0  0  0 
 15 17  2  0  0  0  0 
 17 18  2  0  0  0  0 
M  END
> <Name>
1,4-BIS(1-ISOCYANATO-1-METHYLETHYL)BENZENE

> <Source>
NIST2DMolFile

> <Tox>
-3.120

> <CAS>
2778-41-8

$$$$

  CDK

 18 18  0  0  0  0  0  0  0  0999 V2000
    4.5932   -3.9857    0.0000 C   0  0  0  0  0  0  0  0  0  0  0  0
    4.5932   -5.3204    0.0000 C   0  0  0  0  0  0  0  0  0  0  0  0
    3.4426   -3.3137    0.0000 C   0  0  0  0  0  0  0  0  0  0  0  0
    5.7438   -3.3137    0.0000 C   0  0  0  0  0  0  0  0  0  0  0  0
    3.4426   -5.9739    0.0000 C   0  0  0  0  0  0  0  0  0  0  0  0
    2.2920   -3.9857    0.0000 C   0  0  0  0  0  0  0  0  0  0  0  0
    5.0903   -2.1631    0.0000 C   0  0  0  0  0  0  0  0  0  0  0  0
    6.9036   -2.6602    0.0000 N   0  0  0  0  0  0  0  0  0  0  0  0
    6.4158   -4.4735    0.0000 C   0  0  0  0  0  0  0  0  0  0  0  0
    2.2920   -5.3204    0.0000 C   0  0  0  0  0  0  0  0  0  0  0  0
    1.1506   -3.3137    0.0000 C   0  0  0  0  0  0  0  0  0  0  0  0
    8.0542   -3.3137    0.0000 C   0  0  0  0  0  0  0  0  0  0  0  0
    0.4787   -4.4735    0.0000 C   0  0  0  0  0  0  0  0  0  0  0  0
    0.0000   -2.6602    0.0000 N   0  0  0  0  0  0  0  0  0  0  0  0
    1.8133   -2.1631    0.0000 C   0  0  0  0  0  0  0  0  0  0  0  0
    9.2048   -3.9857    0.0000 O   0  0  0  0  0  0  0  0  0  0  0  0
    0.0000   -1.3347    0.0000 C   0  0  0  0  0  0  0  0  0  0  0  0
    0.0000   -0.0000    0.0000 O   0  0  0  0  0  0  0  0  0  0  0  0
  1  2  2  0  0  0  0 
  1  3  1  0  0  0  0 
  1  4  1  0  0  0  0 
  2  5  1  0  0  0  0 
  6  3  2  0  0  0  0 
  4  7  1  0  0  0  0 
  4  8  1  0  0  0  0 
  4  9  1  0  0  0  0 
  5 10  2  0  0  0  0 
 10  6  1  0  0  0  0 
  6 11  1  0  0  0  0 
 12  8  2  0  0  0  0 
 11 13  1  0  0  0  0 
 11 14  1  0  0  0  0 
 11 15  1  0  0  0  0 
 12 16  2  0  0  0  0 
 17 14  2  0  0  0  0 
 17 18  2  0  0  0  0 
M  END
> <Name>
1,3-BIS(1-ISOCYANATO-1-METHYLETHYL)BENZENE

> <Source>
DSSTox2DMolFile

> <Tox>
-2.495

> <CAS>
2778-42-9

$$$$

  CDK

 14 15  0  0  0  0  0  0  0  0999 V2000
    2.6090    1.0035    0.0000 C   0  0  0  0  0  0  0  0  0  0  0  0
    2.6090    0.0000    0.0000 O   0  0  0  0  0  0  0  0  0  0  0  0
    1.7059    1.5052    0.0000 C   0  0  0  0  0  0  0  0  0  0  0  0
    3.4619    1.5052    0.0000 C   0  0  0  0  0  0  0  0  0  0  0  0
    1.7059    2.5086    0.0000 C   0  0  0  0  0  0  0  0  0  0  0  0
    0.8529    1.0035    0.0000 C   0  0  0  0  0  0  0  0  0  0  0  0
    4.3149    1.0035    0.0000 Cl  0  0  0  0  0  0  0  0  0  0  0  0
    3.4619    2.5086    0.0000 C   0  0  0  0  0  0  0  0  0  0  0  0
    2.6090    3.0104    0.0000 C   0  0  0  0  0  0  0  0  0  0  0  0
    0.8529    3.0104    0.0000 C   0  0  0  0  0  0  0  0  0  0  0  0
    0.0000    1.5052    0.0000 C   0  0  0  0  0  0  0  0  0  0  0  0
    4.3149    3.0104    0.0000 N   0  0  0  0  0  0  0  0  0  0  0  0
    2.6090    4.0138    0.0000 O   0  0  0  0  0  0  0  0  0  0  0  0
    0.0000    2.5086    0.0000 C   0  0  0  0  0  0  0  0  0  0  0  0
  1  2  2  0  0  0  0 
  1  3  1  0  0  0  0 
  4  1  1  0  0  0  0 
  5  3  2  0  0  0  0 
  3  6  1  0  0  0  0 
  4  7  1  0  0  0  0 
  8  4  2  0  0  0  0 
  5  9  1  0  0  0  0 
 10  5  1  0  0  0  0 
  6 11  2  0  0  0  0 
  9  8  1  0  0  0  0 
  8 12  1  0  0  0  0 
  9 13  2  0  0  0  0 
 14 10  2  0  0  0  0 
 11 14  1  0  0  0  0 
M  END
> <Name>
2-AMINO-3-CHLORO-1,4-NAPHTHOQUINONE

> <Source>
NIST2DMolFile

> <Tox>
-6.347

> <CAS>
2797-51-5

$$$$

  CDK

  7  6  0  0  0  0  0  0  0  0999 V2000
    1.1578   -0.0000    0.0000 C   0  0  0  0  0  0  0  0  0  0  0  0
    2.3156   -0.6586    0.0000 C   0  0  0  0  0  0  0  0  0  0  0  0
    0.0000   -0.6586    0.0000 O   0  0  0  0  0  0  0  0  0  0  0  0
    3.4595   -0.0000    0.0000 O   0  0  0  0  0  0  0  0  0  0  0  0
    4.6173   -0.6586    0.0000 C   0  0  0  0  0  0  0  0  0  0  0  0
    5.7750   -0.0000    0.0000 C   0  0  0  0  0  0  0  0  0  0  0  0
    6.9328   -0.6586    0.0000 C   0  0  0  0  0  0  0  0  0  0  0  0
  1  2  1  0  0  0  0 
  1  3  1  0  0  0  0 
  2  4  1  0  0  0  0 
  4  5  1  0  0  0  0 
  5  6  1  0  0  0  0 
  6  7  1  0  0  0  0 
M  END
> <Name>
ETHYLENE GLYCOL MONOPROPYL ETHER

> <Source>
DSSTox2DMolFile

> <Tox>
0.494

> <CAS>
2807-30-9

$$$$

  CDK

  8  7  0  0  0  0  0  0  0  0999 V2000
    5.5045    0.7806    1.2796 C   0  0  0  0  0  0  0  0  0  0  0  0
    4.5323    1.9514    1.3690 C   0  0  0  0  0  0  0  0  0  0  0  0
    6.8614    1.2043    1.5019 C   0  0  0  0  0  0  0  0  0  0  0  0
    3.1032    1.4902    1.1330 C   0  0  0  0  0  0  0  0  0  0  0  0
    7.9881    1.5507    1.6844 C   0  0  0  0  0  0  0  0  0  0  0  0
    2.1258    2.6514    1.2194 C   0  0  0  0  0  0  0  0  0  0  0  0
    9.3405    1.9663    1.9035 C   0  0  0  0  0  0  0  0  0  0  0  0
    0.7027    2.1953    0.9896 C   0  0  0  0  0  0  0  0  0  0  0  0
  1  2  1  0  0  0  0 
  1  3  1  0  0  0  0 
  2  4  1  0  0  0  0 
  3  5  3  0  0  0  0 
  4  6  1  0  0  0  0 
  5  7  1  0  0  0  0 
  6  8  1  0  0  0  0 
M  END
> <Name>
2-OCTYNE

> <Source>
NIST3DMolFile

> <Tox>
0.875

> <CAS>
2809-67-8

$$$$

  CDK

  7  6  0  0  0  0  0  0  0  0999 V2000
    1.3307   -1.3307    0.0000 C   0  0  0  0  0  0  0  0  0  0  0  0
    1.3307   -2.6614    0.0000 C   0  0  0  0  0  0  0  0  0  0  0  0
    2.6614   -1.3307    0.0000 F   0  0  0  0  0  0  0  0  0  0  0  0
    0.0000   -1.3307    0.0000 F   0  0  0  0  0  0  0  0  0  0  0  0
    1.3307   -0.0000    0.0000 F   0  0  0  0  0  0  0  0  0  0  0  0
    0.1759   -3.3184    0.0000 Cl  0  0  0  0  0  0  0  0  0  0  0  0
    2.4855   -3.3184    0.0000 F   0  0  0  0  0  0  0  0  0  0  0  0
  1  2  1  0  0  0  0 
  1  3  1  0  0  0  0 
  1  4  1  0  0  0  0 
  1  5  1  0  0  0  0 
  2  6  1  0  0  0  0 
  2  7  1  0  0  0  0 
M  END
> <Name>
1-Chloro-1,2,2,2-Tetrafluoroethane

> <Source>
DSSTox2DMolFile

> <Tox>
3.461

> <CAS>
2837-89-0

$$$$

  CDK

 10 10  0  0  0  0  0  0  0  0999 V2000
    0.9667    2.8717    0.7485 C   0  0  0  0  0  0  0  0  0  0  0  0
    2.1078    3.4657    1.5473 C   0  0  0  0  0  0  0  0  0  0  0  0
    2.6221    2.4996    2.5682 C   0  0  0  0  0  0  0  0  0  0  0  0
    2.0764    2.4790    3.8605 C   0  0  0  0  0  0  0  0  0  0  0  0
    3.6605    1.6136    2.2434 C   0  0  0  0  0  0  0  0  0  0  0  0
    0.9732    3.4002    4.2430 C   0  0  0  0  0  0  0  0  0  0  0  0
    2.5670    1.5797    4.8081 C   0  0  0  0  0  0  0  0  0  0  0  0
    4.2635    1.6027    0.8839 C   0  0  0  0  0  0  0  0  0  0  0  0
    4.1388    0.7210    3.2035 C   0  0  0  0  0  0  0  0  0  0  0  0
    3.5927    0.7032    4.4801 C   0  0  0  0  0  0  0  0  0  0  0  0
  1  2  1  0  0  0  0 
  2  3  1  0  0  0  0 
  4  3  2  0  0  0  0 
  3  5  1  0  0  0  0 
  4  6  1  0  0  0  0 
  7  4  1  0  0  0  0 
  5  8  1  0  0  0  0 
  5  9  2  0  0  0  0 
 10  7  2  0  0  0  0 
  9 10  1  0  0  0  0 
M  END
> <Name>
1,3-DIMETHYL-2-ETHYLBENZENE

> <Source>
NIST3DMolFile

> <Tox>
-0.131

> <CAS>
2870-04-4

$$$$

  CDK

  9  8  0  0  0  0  0  0  0  0999 V2000
    1.7434    1.4943    0.0000 C   0  0  0  0  0  0  0  0  0  0  0  0
    2.5902    0.9962    0.0000 C   0  0  0  0  0  0  0  0  0  0  0  0
    0.8468    0.9962    0.0000 C   0  0  0  0  0  0  0  0  0  0  0  0
    3.4369    1.4943    0.0000 C   0  0  0  0  0  0  0  0  0  0  0  0
    0.8468    0.0000    0.0000 Cl  0  0  0  0  0  0  0  0  0  0  0  0
    0.0000    1.4943    0.0000 O   0  0  0  0  0  0  0  0  0  0  0  0
    4.3335    1.0460    0.0000 C   0  0  0  0  0  0  0  0  0  0  0  0
    4.3335    0.0000    0.0000 Cl  0  0  0  0  0  0  0  0  0  0  0  0
    5.1803    1.5441    0.0000 O   0  0  0  0  0  0  0  0  0  0  0  0
  1  2  1  0  0  0  0 
  1  3  1  0  0  0  0 
  2  4  1  0  0  0  0 
  3  5  1  0  0  0  0 
  3  6  2  0  0  0  0 
  4  7  1  0  0  0  0 
  7  8  1  0  0  0  0 
  7  9  2  0  0  0  0 
M  END
> <Name>
GLUTARYL CHLORIDE

> <Source>
NIST2DMolFile

> <Tox>
-0.932

> <CAS>
2873-74-7

$$$$

  CDK

 15 15  0  0  0  0  0  0  0  0999 V2000
    0.8807    2.9503    8.9659 C   0  0  0  0  0  0  0  0  0  0  0  0
    2.0512    3.6898    9.6018 C   0  0  0  0  0  0  0  0  0  0  0  0
    1.2414    2.4237    7.5892 C   0  0  0  0  0  0  0  0  0  0  0  0
    3.4028    3.1714    9.1275 C   0  0  0  0  0  0  0  0  0  0  0  0
    2.3697    1.4036    7.6561 C   0  0  0  0  0  0  0  0  0  0  0  0
    3.3550    1.6831    8.7953 C   0  0  0  0  0  0  0  0  0  0  0  0
    4.7457    1.1052    8.5119 C   0  0  0  0  0  0  0  0  0  0  0  0
    5.3816    1.4912    7.1849 C   0  0  0  0  0  0  0  0  0  0  0  0
    6.0700    2.8470    7.2049 C   0  0  0  0  0  0  0  0  0  0  0  0
    6.5284    3.2585    5.8151 C   0  0  0  0  0  0  0  0  0  0  0  0
    5.3493    3.5015    4.8825 C   0  0  0  0  0  0  0  0  0  0  0  0
    5.7907    3.6324    3.4339 C   0  0  0  0  0  0  0  0  0  0  0  0
    6.3799    2.3319    2.9093 C   0  0  0  0  0  0  0  0  0  0  0  0
    6.9752    2.5034    1.5223 C   0  0  0  0  0  0  0  0  0  0  0  0
    7.5436    1.2034    0.9997 C   0  0  0  0  0  0  0  0  0  0  0  0
  1  2  1  0  0  0  0 
  3  1  1  0  0  0  0 
  2  4  1  0  0  0  0 
  5  3  1  0  0  0  0 
  4  6  1  0  0  0  0 
  6  5  1  0  0  0  0 
  6  7  1  0  0  0  0 
  7  8  1  0  0  0  0 
  8  9  1  0  0  0  0 
  9 10  1  0  0  0  0 
 10 11  1  0  0  0  0 
 11 12  1  0  0  0  0 
 12 13  1  0  0  0  0 
 13 14  1  0  0  0  0 
 14 15  1  0  0  0  0 
M  END
> <Name>
N-NONYLCYCLOHEXANE

> <Source>
NIST3DMolFile

> <Tox>
-2.606

> <CAS>
2883-02-5

$$$$

  CDK

 19 18  0  0  0  0  0  0  0  0999 V2000
    0.0000    0.0000    0.0000 C   0  0  0  0  0  0  0  0  0  0  0  0
    1.1000    0.9400   -0.5000 C   0  0  0  0  0  0  0  0  0  0  0  0
    1.3400    2.1000    0.4800 C   0  0  0  0  0  0  0  0  0  0  0  0
    2.5000    3.0200    0.0400 C   0  0  0  0  0  0  0  0  0  0  0  0
    2.8000    4.1200    1.0400 C   0  0  0  0  0  0  0  0  0  0  0  0
    4.0400    4.9400    0.6800 C   0  0  0  0  0  0  0  0  0  0  0  0
    4.4600    5.9000    1.7800 C   0  0  0  0  0  0  0  0  0  0  0  0
    5.8400    6.5000    1.5400 C   0  0  0  0  0  0  0  0  0  0  0  0
    6.3800    7.2200    2.7800 C   0  0  0  0  0  0  0  0  0  0  0  0
    7.8800    7.5200    2.6800 C   0  0  0  0  0  0  0  0  0  0  0  0
    8.5000    7.9000    4.0200 C   0  0  0  0  0  0  0  0  0  0  0  0
   10.0400    7.8400    4.0000 C   0  0  0  0  0  0  0  0  0  0  0  0
   10.6400    7.8800    5.4000 C   0  0  0  0  0  0  0  0  0  0  0  0
   12.1400    7.5600    5.4000 C   0  0  0  0  0  0  0  0  0  0  0  0
   12.7000    7.3400    6.8000 C   0  0  0  0  0  0  0  0  0  0  0  0
   14.1600    6.8800    6.8000 C   0  0  0  0  0  0  0  0  0  0  0  0
   14.6800    6.5200    8.1800 C   0  0  0  0  0  0  0  0  0  0  0  0
   16.1200    6.0000    8.1800 C   0  0  0  0  0  0  0  0  0  0  0  0
   16.6600    5.5200    9.8400 S   0  0  0  0  0  0  0  0  0  0  0  0
  1  2  1  0  0  0  0 
  2  3  1  0  0  0  0 
  3  4  1  0  0  0  0 
  4  5  1  0  0  0  0 
  5  6  1  0  0  0  0 
  6  7  1  0  0  0  0 
  7  8  1  0  0  0  0 
  8  9  1  0  0  0  0 
  9 10  1  0  0  0  0 
 10 11  1  0  0  0  0 
 11 12  1  0  0  0  0 
 12 13  1  0  0  0  0 
 13 14  1  0  0  0  0 
 14 15  1  0  0  0  0 
 15 16  1  0  0  0  0 
 16 17  1  0  0  0  0 
 17 18  1  0  0  0  0 
 18 19  1  0  0  0  0 
M  END
> <Name>
1-OCTADECANETHIOL

> <Source>
NIH3DMolFile

> <Tox>
-6.398

> <CAS>
2885-00-9

$$$$

  CDK

 15 15  0  0  0  0  0  0  0  0999 V2000
    1.5886   -2.7875    0.0000 O   0  0  0  0  0  0  0  0  0  0  0  0
    1.1761   -2.0730    0.0000 C   0  0  0  0  0  0  0  0  0  0  0  0
    0.7636   -1.3586    0.0000 N   0  0  0  0  0  0  0  0  0  0  0  0
   -0.0614   -1.3586    0.0000 C   0  0  0  0  0  0  0  0  0  0  0  0
   -0.8864   -1.3586    0.0000 C   0  0  0  0  0  0  0  0  0  0  0  0
   -0.0614   -2.1836    0.0000 C   0  0  0  0  0  0  0  0  0  0  0  0
   -0.0614   -0.5336    0.0000 C   0  0  0  0  0  0  0  0  0  0  0  0
    0.6531   -0.1211    0.0000 C   0  0  0  0  0  0  0  0  0  0  0  0
   -0.7759   -0.1211    0.0000 C   0  0  0  0  0  0  0  0  0  0  0  0
    0.6531    0.7039    0.0000 C   0  0  0  0  0  0  0  0  0  0  0  0
   -0.7759    0.7039    0.0000 C   0  0  0  0  0  0  0  0  0  0  0  0
   -0.0614    1.1164    0.0000 C   0  0  0  0  0  0  0  0  0  0  0  0
   -0.0614    1.9414    0.0000 C   0  0  0  0  0  0  0  0  0  0  0  0
    0.6531    2.3539    0.0000 C   0  0  0  0  0  0  0  0  0  0  0  0
   -0.7759    2.3539    0.0000 C   0  0  0  0  0  0  0  0  0  0  0  0
  1  2  2  0  0  0  0 
  2  3  2  0  0  0  0 
  3  4  1  0  0  0  0 
  4  5  1  0  0  0  0 
  4  6  1  0  0  0  0 
  4  7  1  0  0  0  0 
  7  8  2  0  0  0  0 
  7  9  1  0  0  0  0 
  8 10  1  0  0  0  0 
 11  9  2  0  0  0  0 
 10 12  2  0  0  0  0 
 12 11  1  0  0  0  0 
 12 13  1  0  0  0  0 
 13 14  1  0  0  0  0 
 13 15  2  0  0  0  0 
M  END
> <Name>
1-(1-ISOCYANATO-1-METHYLETHYL)-4-(1-METHYLETHE*)

> <Source>
Smiles

> <Tox>
-2.331

> <CAS>
2889-58-9

$$$$

  CDK

 10 10  0  0  0  0  0  0  0  0999 V2000
    1.5800    0.0093    0.0000 C   0  0  0  0  0  0  0  0  0  0  0  0
    0.3985    0.7435    0.0000 C   0  0  0  0  0  0  0  0  0  0  0  0
    1.5695   -1.3842    0.0000 C   0  0  0  0  0  0  0  0  0  0  0  0
    3.0557    0.8238    0.0000 Cl  0  0  0  0  0  0  0  0  0  0  0  0
   -0.8194    0.0518    0.0000 C   0  0  0  0  0  0  0  0  0  0  0  0
    0.3528   -2.0561    0.0000 C   0  0  0  0  0  0  0  0  0  0  0  0
   -0.8444   -1.3494    0.0000 C   0  0  0  0  0  0  0  0  0  0  0  0
   -1.9996    0.8412    0.0000 N   0  0  0  0  0  0  0  0  0  0  0  0
   -3.2103    0.4842    0.0000 C   0  0  0  0  0  0  0  0  0  0  0  0
   -4.3836    0.3903    0.0000 O   0  0  0  0  0  0  0  0  0  0  0  0
  1  2  1  0  0  0  0 
  1  3  2  0  0  0  0 
  1  4  1  0  0  0  0 
  2  5  2  0  0  0  0 
  6  3  1  0  0  0  0 
  5  7  1  0  0  0  0 
  5  8  1  0  0  0  0 
  7  6  2  0  0  0  0 
  8  9  2  0  0  0  0 
  9 10  2  0  0  0  0 
M  END
> <Name>
3-CHLOROPHENYL ISOCYANATE

> <Source>
DougDB3DMolFile

> <Tox>
-0.712

> <CAS>
2909-38-8

$$$$

  CDK

  7  6  0  0  0  0  0  0  0  0999 V2000
    0.0000    1.0042    0.0000 C   0  0  0  0  0  0  0  0  0  0  0  0
    0.8536    1.5063    0.0000 C   0  0  0  0  0  0  0  0  0  0  0  0
    1.7574    1.0042    0.0000 C   0  0  0  0  0  0  0  0  0  0  0  0
    2.6110    1.5063    0.0000 O   0  0  0  0  0  0  0  0  0  0  0  0
    3.4143    1.0042    0.0000 C   0  0  0  0  0  0  0  0  0  0  0  0
    4.3181    1.5063    0.0000 Cl  0  0  0  0  0  0  0  0  0  0  0  0
    3.4143    0.0000    0.0000 O   0  0  0  0  0  0  0  0  0  0  0  0
  1  2  2  0  0  0  0 
  2  3  1  0  0  0  0 
  3  4  1  0  0  0  0 
  4  5  1  0  0  0  0 
  5  6  1  0  0  0  0 
  5  7  2  0  0  0  0 
M  END
> <Name>
ALLYL CHLOROCARBONATE

> <Source>
NIST2DMolFile

> <Tox>
1.301

> <CAS>
2937-50-0

$$$$

  CDK

  9  8  0  0  0  0  0  0  0  0999 V2000
    0.9098    1.2637    0.0000 S   0  0  0  0  0  0  0  0  0  0  0  0
    0.9098    0.5055    0.0000 C   0  0  0  0  0  0  0  0  0  0  0  0
    0.0000    0.0000    0.0000 C   0  0  0  0  0  0  0  0  0  0  0  0
    1.8197    0.0000    0.0000 C   0  0  0  0  0  0  0  0  0  0  0  0
    2.6790    0.5055    0.0000 C   0  0  0  0  0  0  0  0  0  0  0  0
    3.5888    0.0000    0.0000 C   0  0  0  0  0  0  0  0  0  0  0  0
    4.4986    0.5055    0.0000 C   0  0  0  0  0  0  0  0  0  0  0  0
    5.4085    0.0000    0.0000 C   0  0  0  0  0  0  0  0  0  0  0  0
    6.3183    0.5055    0.0000 C   0  0  0  0  0  0  0  0  0  0  0  0
  1  2  1  0  0  0  0 
  2  3  1  0  0  0  0 
  2  4  1  0  0  0  0 
  4  5  1  0  0  0  0 
  5  6  1  0  0  0  0 
  6  7  1  0  0  0  0 
  7  8  1  0  0  0  0 
  8  9  1  0  0  0  0 
M  END
> <Name>
2-OCTANETHIOL

> <Source>
NIST2DMolFile

> <Tox>
-0.148

> <CAS>
3001-66-9

$$$$

  CDK

 20 21  0  0  0  0  0  0  0  0999 V2000
   -3.4047    2.7906   -0.0636 O   0  0  0  0  0  0  0  0  0  0  0  0
   -2.6315    1.8118   -0.1873 N   0  0  0  0  0  0  0  0  0  0  0  0
   -1.3994    1.9516   -0.3702 O   0  0  0  0  0  0  0  0  0  0  0  0
   -3.1708    0.4971   -0.1170 C   0  0  0  0  0  0  0  0  0  0  0  0
   -2.3554   -0.6244   -0.2490 C   0  0  0  0  0  0  0  0  0  0  0  0
   -4.5417    0.3388    0.0870 C   0  0  0  0  0  0  0  0  0  0  0  0
   -0.9716   -0.4926   -0.4554 N   0  0  0  0  0  0  0  0  0  0  0  0
   -2.9031   -1.9034   -0.1780 C   0  0  0  0  0  0  0  0  0  0  0  0
   -5.0931   -0.9404    0.1587 C   0  0  0  0  0  0  0  0  0  0  0  0
   -0.3749   -0.4626    0.6465 N   0  0  0  0  0  0  0  0  0  0  0  0
   -4.2739   -2.0614    0.0261 C   0  0  0  0  0  0  0  0  0  0  0  0
    1.0022   -0.3316    0.4416 C   0  0  0  0  0  0  0  0  0  0  0  0
    1.5793    0.9360    0.3662 C   0  0  0  0  0  0  0  0  0  0  0  0
    1.7987   -1.4695    0.3129 C   0  0  0  0  0  0  0  0  0  0  0  0
    2.9530    1.0657    0.1620 C   0  0  0  0  0  0  0  0  0  0  0  0
    3.1725   -1.3398    0.1087 C   0  0  0  0  0  0  0  0  0  0  0  0
    3.7497   -0.0721    0.0332 C   0  0  0  0  0  0  0  0  0  0  0  0
    5.1389    0.0590   -0.1731 N   0  0  0  0  0  0  0  0  0  0  0  0
    5.8558    1.1996    0.3613 C   0  0  0  0  0  0  0  0  0  0  0  0
    5.8699   -0.9523   -0.9105 C   0  0  0  0  0  0  0  0  0  0  0  0
  1  2  1  0  0  0  0 
  3  2  2  0  0  0  0 
  2  4  1  0  0  0  0 
  5  4  1  0  0  0  0 
  4  6  2  0  0  0  0 
  7  5  1  0  0  0  0 
  5  8  2  0  0  0  0 
  6  9  1  0  0  0  0 
 10  7  2  0  0  0  0 
  8 11  1  0  0  0  0 
 11  9  2  0  0  0  0 
 10 12  1  0  0  0  0 
 12 13  2  0  0  0  0 
 12 14  1  0  0  0  0 
 15 13  1  0  0  0  0 
 16 14  2  0  0  0  0 
 17 15  2  0  0  0  0 
 17 16  1  0  0  0  0 
 18 17  1  0  0  0  0 
 18 19  1  0  0  0  0 
 18 20  1  0  0  0  0 
M  CHG  1   1  -1
M  CHG  1   2   1
M  END
> <Name>
DIS. A. 15

> <Source>
Chemidplus3DMolFile

> <Tox>
-9.000

> <CAS>
3010-38-6

$$$$

  CDK

 22 23  0  0  0  0  0  0  0  0999 V2000
    1.5953    0.3376   -8.1864 O   0  0  0  0  0  0  0  0  0  0  0  0
    2.5500   -0.1747   -7.5534 N   0  0  0  0  0  0  0  0  0  0  0  0
    3.5204   -0.7163   -8.1362 O   0  0  0  0  0  0  0  0  0  0  0  0
    2.5319   -0.1401   -6.1341 C   0  0  0  0  0  0  0  0  0  0  0  0
    1.4640    0.4569   -5.4641 C   0  0  0  0  0  0  0  0  0  0  0  0
    3.5819   -0.7041   -5.4096 C   0  0  0  0  0  0  0  0  0  0  0  0
    1.4461    0.4900   -4.0697 C   0  0  0  0  0  0  0  0  0  0  0  0
    3.5641   -0.6712   -4.0152 C   0  0  0  0  0  0  0  0  0  0  0  0
    2.4962   -0.0742   -3.3522 C   0  0  0  0  0  0  0  0  0  0  0  0
    2.4773   -0.0422   -1.9473 N   0  0  0  0  0  0  0  0  0  0  0  0
    1.9056   -1.0655   -1.5030 N   0  0  0  0  0  0  0  0  0  0  0  0
    1.8867   -1.0341   -0.1051 C   0  0  0  0  0  0  0  0  0  0  0  0
    0.8178   -0.4385    0.5644 C   0  0  0  0  0  0  0  0  0  0  0  0
    2.9371   -1.5972    0.6197 C   0  0  0  0  0  0  0  0  0  0  0  0
    0.7994   -0.4058    1.9588 C   0  0  0  0  0  0  0  0  0  0  0  0
    2.9185   -1.5646    2.0141 C   0  0  0  0  0  0  0  0  0  0  0  0
    1.8497   -0.9689    2.6836 C   0  0  0  0  0  0  0  0  0  0  0  0
    1.8316   -0.9342    4.0932 N   0  0  0  0  0  0  0  0  0  0  0  0
    0.7539   -1.5649    4.8294 C   0  0  0  0  0  0  0  0  0  0  0  0
    2.8976   -0.2792    4.8252 C   0  0  0  0  0  0  0  0  0  0  0  0
    1.0951   -3.0148    5.1149 C   0  0  0  0  0  0  0  0  0  0  0  0
    2.5666    1.1866    5.0301 C   0  0  0  0  0  0  0  0  0  0  0  0
  1  2  1  0  0  0  0 
  3  2  2  0  0  0  0 
  2  4  1  0  0  0  0 
  4  5  2  0  0  0  0 
  4  6  1  0  0  0  0 
  7  5  1  0  0  0  0 
  8  6  2  0  0  0  0 
  9  7  2  0  0  0  0 
  9  8  1  0  0  0  0 
 10  9  1  0  0  0  0 
 11 10  2  0  0  0  0 
 11 12  1  0  0  0  0 
 13 12  2  0  0  0  0 
 14 12  1  0  0  0  0 
 15 13  1  0  0  0  0 
 16 14  2  0  0  0  0 
 17 15  2  0  0  0  0 
 17 16  1  0  0  0  0 
 18 17  1  0  0  0  0 
 18 19  1  0  0  0  0 
 18 20  1  0  0  0  0 
 19 21  1  0  0  0  0 
 20 22  1  0  0  0  0 
M  CHG  1   1  -1
M  CHG  1   2   1
M  END
> <Name>
DIS. A. 5

> <Source>
Chemidplus3DMolFile

> <Tox>
-10.097

> <CAS>
3025-52-3

$$$$

  CDK

  9  9  0  0  0  0  0  0  0  0999 V2000
    4.5603    2.8871    3.3004 C   0  0  0  0  0  0  0  0  0  0  0  0
    3.8404    2.4613    2.0205 C   0  0  0  0  0  0  0  0  0  0  0  0
    4.8854    2.2868    0.9151 C   0  0  0  0  0  0  0  0  0  0  0  0
    2.8444    3.5519    1.5795 C   0  0  0  0  0  0  0  0  0  0  0  0
    3.1257    1.1204    2.2650 C   0  0  0  0  0  0  0  0  0  0  0  0
    1.4357    3.4373    2.1609 C   0  0  0  0  0  0  0  0  0  0  0  0
    1.8396    1.0177    1.4682 C   0  0  0  0  0  0  0  0  0  0  0  0
    1.4032    3.8396    3.6273 C   0  0  0  0  0  0  0  0  0  0  0  0
    0.8278    2.0456    1.9458 C   0  0  0  0  0  0  0  0  0  0  0  0
  1  2  1  0  0  0  0 
  2  3  1  0  0  0  0 
  4  2  1  0  0  0  0 
  2  5  1  0  0  0  0 
  6  4  1  0  0  0  0 
  5  7  1  0  0  0  0 
  6  8  1  0  0  0  0 
  9  6  1  0  0  0  0 
  7  9  1  0  0  0  0 
M  END
> <Name>
1,1,3-TRIMETHYLCYCLOHEXANE

> <Source>
NIST3DMolFile

> <Tox>
1.033

> <CAS>
3073-66-3

$$$$

  CDK

  7  7  0  0  0  0  0  0  0  0999 V2000
    0.9091    0.9596    0.0000 C   0  0  0  0  0  0  0  0  0  0  0  0
    0.0000    1.3132    0.0000 Cl  0  0  0  0  0  0  0  0  0  0  0  0
    1.7678    1.5657    0.0000 S   0  0  0  0  0  0  0  0  0  0  0  0
    1.2627    0.0000    0.0000 C   0  0  0  0  0  0  0  0  0  0  0  0
    2.5759    0.9596    0.0000 C   0  0  0  0  0  0  0  0  0  0  0  0
    2.2223    0.0000    0.0000 C   0  0  0  0  0  0  0  0  0  0  0  0
    3.4850    1.2627    0.0000 Cl  0  0  0  0  0  0  0  0  0  0  0  0
  1  2  1  0  0  0  0 
  1  3  1  0  0  0  0 
  4  1  2  0  0  0  0 
  3  5  1  0  0  0  0 
  6  4  1  0  0  0  0 
  5  6  2  0  0  0  0 
  5  7  1  0  0  0  0 
M  END
> <Name>
2,5-DICHLOROTHIOPHENE

> <Source>
NIST2DMolFile

> <Tox>
0.934

> <CAS>
3172-52-9

$$$$

  CDK

 10 10  0  0  0  0  0  0  0  0999 V2000
    2.1498    2.4128    4.1674 C   0  0  0  0  0  0  0  0  0  0  0  0
    2.0251    2.1702    2.6648 C   0  0  0  0  0  0  0  0  0  0  0  0
    1.0050    3.1538    2.0863 C   0  0  0  0  0  0  0  0  0  0  0  0
    1.5084    0.7510    2.4210 C   0  0  0  0  0  0  0  0  0  0  0  0
    3.3907    2.3537    1.9517 C   0  0  0  0  0  0  0  0  0  0  0  0
    3.9395    3.7771    2.1083 C   0  0  0  0  0  0  0  0  0  0  0  0
    4.4408    1.3501    2.4280 C   0  0  0  0  0  0  0  0  0  0  0  0
    5.4525    3.8470    1.9406 C   0  0  0  0  0  0  0  0  0  0  0  0
    5.6687    1.3756    1.5283 C   0  0  0  0  0  0  0  0  0  0  0  0
    5.9679    2.7735    0.9988 C   0  0  0  0  0  0  0  0  0  0  0  0
  1  2  1  0  0  0  0 
  2  3  1  0  0  0  0 
  2  4  1  0  0  0  0 
  2  5  1  0  0  0  0 
  5  6  1  0  0  0  0 
  7  5  1  0  0  0  0 
  6  8  1  0  0  0  0 
  9  7  1  0  0  0  0 
  8 10  1  0  0  0  0 
 10  9  1  0  0  0  0 
M  END
> <Name>
TERT-BUTYLCYCLOHEXANE

> <Source>
NIST3DMolFile

> <Tox>
0.367

> <CAS>
3178-22-1

$$$$

  CDK

 11 11  0  0  0  0  0  0  0  0999 V2000
   -1.2374    0.9245    0.0445 C   0  0  0  0  0  0  0  0  0  0  0  0
   -0.4909   -0.2053    0.4281 C   0  0  0  0  0  0  0  0  0  0  0  0
   -2.5531    0.7918   -0.4228 C   0  0  0  0  0  0  0  0  0  0  0  0
   -0.6290    2.1472    0.1466 O   0  0  0  0  0  0  0  0  0  0  0  0
   -1.0934   -1.4597    0.3260 C   0  0  0  0  0  0  0  0  0  0  0  0
    0.9124   -0.1036    0.9332 C   0  0  0  0  0  0  0  0  0  0  0  0
   -3.1241   -0.4704   -0.5124 C   0  0  0  0  0  0  0  0  0  0  0  0
   -2.3963   -1.5947   -0.1397 C   0  0  0  0  0  0  0  0  0  0  0  0
    1.9136   -0.2012   -0.2105 C   0  0  0  0  0  0  0  0  0  0  0  0
    3.3429   -0.1184    0.3012 C   0  0  0  0  0  0  0  0  0  0  0  0
    4.3414   -0.2160   -0.8300 C   0  0  0  0  0  0  0  0  0  0  0  0
  1  2  1  0  0  0  0 
  1  3  2  0  0  0  0 
  1  4  1  0  0  0  0 
  2  5  2  0  0  0  0 
  2  6  1  0  0  0  0 
  7  3  1  0  0  0  0 
  5  8  1  0  0  0  0 
  6  9  1  0  0  0  0 
  8  7  2  0  0  0  0 
  9 10  1  0  0  0  0 
 10 11  1  0  0  0  0 
M  END
> <Name>
2-BUTYLPHENOL

> <Source>
DougDB3DMolFile

> <Tox>
-1.987

> <CAS>
3180-09-4

$$$$

  CDK

  9  8  0  0  0  0  0  0  0  0999 V2000
    3.0987    2.8043    6.0236 C   0  0  0  0  0  0  0  0  0  0  0  0
    4.0965    2.7382    4.8760 C   0  0  0  0  0  0  0  0  0  0  0  0
    1.8098    2.0023    5.8130 C   0  0  0  0  0  0  0  0  0  0  0  0
    3.8670    3.8018    3.8128 C   0  0  0  0  0  0  0  0  0  0  0  0
    0.9027    2.6484    4.7794 C   0  0  0  0  0  0  0  0  0  0  0  0
    2.1084    0.5585    5.4437 C   0  0  0  0  0  0  0  0  0  0  0  0
    4.7312    3.5555    2.5855 C   0  0  0  0  0  0  0  0  0  0  0  0
    4.3208    2.2795    1.8648 C   0  0  0  0  0  0  0  0  0  0  0  0
    5.2783    1.9303    0.7501 C   0  0  0  0  0  0  0  0  0  0  0  0
  1  2  1  0  0  0  0 
  1  3  1  0  0  0  0 
  2  4  1  0  0  0  0 
  3  5  1  0  0  0  0 
  3  6  1  0  0  0  0 
  4  7  1  0  0  0  0 
  7  8  1  0  0  0  0 
  8  9  1  0  0  0  0 
M  END
> <Name>
2-METHYLOCTANE

> <Source>
NIST3DMolFile

> <Tox>
0.793

> <CAS>
3221-61-2

$$$$

  CDK

 22 24  0  0  0  0  0  0  0  0999 V2000
    6.9110   -0.0000    0.0000 Cl  0  0  0  0  0  0  0  0  0  0  0  0
    6.9110   -1.3269    0.0000 C   0  0  0  0  0  0  0  0  0  0  0  0
    8.0628   -1.9904    0.0000 C   0  0  0  0  0  0  0  0  0  0  0  0
    5.7591   -1.9904    0.0000 C   0  0  0  0  0  0  0  0  0  0  0  0
    9.2146   -1.3269    0.0000 Cl  0  0  0  0  0  0  0  0  0  0  0  0
    8.0628   -3.3173    0.0000 C   0  0  0  0  0  0  0  0  0  0  0  0
    5.7591   -3.3173    0.0000 C   0  0  0  0  0  0  0  0  0  0  0  0
    4.6073   -1.3269    0.0000 O   0  0  0  0  0  0  0  0  0  0  0  0
    9.2146   -3.9899    0.0000 Cl  0  0  0  0  0  0  0  0  0  0  0  0
    6.9110   -3.9899    0.0000 C   0  0  0  0  0  0  0  0  0  0  0  0
    4.6073   -3.9899    0.0000 O   0  0  0  0  0  0  0  0  0  0  0  0
    3.4555   -1.9904    0.0000 C   0  0  0  0  0  0  0  0  0  0  0  0
    6.9110   -5.3168    0.0000 Cl  0  0  0  0  0  0  0  0  0  0  0  0
    3.4555   -3.3173    0.0000 C   0  0  0  0  0  0  0  0  0  0  0  0
    2.3037   -1.3269    0.0000 C   0  0  0  0  0  0  0  0  0  0  0  0
    2.3037   -3.9899    0.0000 C   0  0  0  0  0  0  0  0  0  0  0  0
    1.1518   -1.9904    0.0000 C   0  0  0  0  0  0  0  0  0  0  0  0
    2.3037   -0.0000    0.0000 Cl  0  0  0  0  0  0  0  0  0  0  0  0
    2.3037   -5.3168    0.0000 Cl  0  0  0  0  0  0  0  0  0  0  0  0
    1.1518   -3.3173    0.0000 C   0  0  0  0  0  0  0  0  0  0  0  0
    0.0000   -1.3269    0.0000 Cl  0  0  0  0  0  0  0  0  0  0  0  0
    0.0000   -3.9899    0.0000 Cl  0  0  0  0  0  0  0  0  0  0  0  0
  1  2  1  0  0  0  0 
  2  3  2  0  0  0  0 
  2  4  1  0  0  0  0 
  3  5  1  0  0  0  0 
  3  6  1  0  0  0  0 
  7  4  2  0  0  0  0 
  8  4  1  0  0  0  0 
  6  9  1  0  0  0  0 
  6 10  2  0  0  0  0 
 10  7  1  0  0  0  0 
  7 11  1  0  0  0  0 
 12  8  1  0  0  0  0 
 10 13  1  0  0  0  0 
 11 14  1  0  0  0  0 
 14 12  1  0  0  0  0 
 15 12  2  0  0  0  0 
 14 16  2  0  0  0  0 
 17 15  1  0  0  0  0 
 15 18  1  0  0  0  0 
 16 19  1  0  0  0  0 
 16 20  1  0  0  0  0 
 20 17  2  0  0  0  0 
 17 21  1  0  0  0  0 
 20 22  1  0  0  0  0 
M  END
> <Name>
1,2,3,4,6,7,8,9-OCTACHLORODIBENZO-P-DIOXIN

> <Source>
DSSTox2DMolFile

> <Tox>
-12.084

> <CAS>
3268-87-9

$$$$

  CDK

 35 42  0  0  0  0  0  0  0  0999 V2000
   -5.6300    2.4533    0.0034 O   0  0  0  0  0  0  0  0  0  0  0  0
   -5.0182    1.3922    0.0008 C   0  0  0  0  0  0  0  0  0  0  0  0
   -3.5389    1.3769    0.0006 C   0  0  0  0  0  0  0  0  0  0  0  0
   -5.7462    0.1048   -0.0012 C   0  0  0  0  0  0  0  0  0  0  0  0
   -2.8477    0.1556    0.0011 C   0  0  0  0  0  0  0  0  0  0  0  0
   -2.8581    2.5944    0.0008 C   0  0  0  0  0  0  0  0  0  0  0  0
   -5.0249   -1.1041    0.0002 C   0  0  0  0  0  0  0  0  0  0  0  0
   -7.1500    0.1290   -0.0041 C   0  0  0  0  0  0  0  0  0  0  0  0
   -1.4213    0.1971    0.0010 C   0  0  0  0  0  0  0  0  0  0  0  0
   -3.5385   -1.0860    0.0011 C   0  0  0  0  0  0  0  0  0  0  0  0
   -1.4657    2.6173    0.0009 C   0  0  0  0  0  0  0  0  0  0  0  0
   -5.7848   -2.2907    0.0002 C   0  0  0  0  0  0  0  0  0  0  0  0
   -7.8663   -1.0621   -0.0045 C   0  0  0  0  0  0  0  0  0  0  0  0
   -0.7135    1.4321    0.0009 C   0  0  0  0  0  0  0  0  0  0  0  0
   -0.7046   -1.0119    0.0010 C   0  0  0  0  0  0  0  0  0  0  0  0
   -2.7728   -2.2647    0.0012 C   0  0  0  0  0  0  0  0  0  0  0  0
   -7.1842   -2.2712   -0.0019 C   0  0  0  0  0  0  0  0  0  0  0  0
    0.7846    1.4296    0.0004 C   0  0  0  0  0  0  0  0  0  0  0  0
    0.6991   -0.9898    0.0009 N   0  0  0  0  0  0  0  0  0  0  0  0
   -1.3809   -2.2302    0.0010 C   0  0  0  0  0  0  0  0  0  0  0  0
    1.4780    0.1849    0.0005 C   0  0  0  0  0  0  0  0  0  0  0  0
    1.5515    2.6052   -0.0003 C   0  0  0  0  0  0  0  0  0  0  0  0
    2.8966    0.1440    0.0002 C   0  0  0  0  0  0  0  0  0  0  0  0
    2.9459    2.5645   -0.0010 C   0  0  0  0  0  0  0  0  0  0  0  0
    3.6182    1.3414   -0.0006 C   0  0  0  0  0  0  0  0  0  0  0  0
    3.6476   -1.1435    0.0014 C   0  0  0  0  0  0  0  0  0  0  0  0
    5.0964    1.3524   -0.0011 C   0  0  0  0  0  0  0  0  0  0  0  0
    3.0664   -2.2217    0.0028 O   0  0  0  0  0  0  0  0  0  0  0  0
    5.1249   -1.1313    0.0007 C   0  0  0  0  0  0  0  0  0  0  0  0
    5.7127    2.4113   -0.0013 O   0  0  0  0  0  0  0  0  0  0  0  0
    5.8249    0.0731   -0.0011 C   0  0  0  0  0  0  0  0  0  0  0  0
    5.8288   -2.3429    0.0012 C   0  0  0  0  0  0  0  0  0  0  0  0
    7.2255    0.0713   -0.0027 C   0  0  0  0  0  0  0  0  0  0  0  0
    7.2241   -2.3429   -0.0002 C   0  0  0  0  0  0  0  0  0  0  0  0
    7.9215   -1.1374   -0.0025 C   0  0  0  0  0  0  0  0  0  0  0  0
  1  2  2  0  0  0  0 
  3  2  1  0  0  0  0 
  4  2  1  0  0  0  0 
  5  3  2  0  0  0  0 
  3  6  1  0  0  0  0 
  7  4  1  0  0  0  0 
  4  8  2  0  0  0  0 
  9  5  1  0  0  0  0 
  5 10  1  0  0  0  0 
 11  6  2  0  0  0  0 
 10  7  1  0  0  0  0 
  7 12  2  0  0  0  0 
  8 13  1  0  0  0  0 
  9 14  2  0  0  0  0 
  9 15  1  0  0  0  0 
 10 16  2  0  0  0  0 
 14 11  1  0  0  0  0 
 12 17  1  0  0  0  0 
 17 13  2  0  0  0  0 
 14 18  1  0  0  0  0 
 19 15  1  0  0  0  0 
 15 20  2  0  0  0  0 
 20 16  1  0  0  0  0 
 18 21  2  0  0  0  0 
 18 22  1  0  0  0  0 
 19 21  1  0  0  0  0 
 21 23  1  0  0  0  0 
 22 24  2  0  0  0  0 
 23 25  2  0  0  0  0 
 23 26  1  0  0  0  0 
 25 24  1  0  0  0  0 
 25 27  1  0  0  0  0 
 28 26  2  0  0  0  0 
 26 29  1  0  0  0  0 
 30 27  2  0  0  0  0 
 27 31  1  0  0  0  0 
 29 31  1  0  0  0  0 
 29 32  2  0  0  0  0 
 31 33  2  0  0  0  0 
 32 34  1  0  0  0  0 
 33 35  1  0  0  0  0 
 34 35  2  0  0  0  0 
M  END
> <Name>
C.I.VAT GREEN 3

> <Source>
Chemidplus3DMolFile

> <Tox>
-17.000

> <CAS>
3271-76-9

$$$$

  CDK

 18 20  0  0  0  0  0  0  0  0999 V2000
    4.3567    0.9032    0.0000 O   0  0  0  0  0  0  0  0  0  0  0  0
    3.1241    0.3251   -0.0004 C   0  0  0  0  0  0  0  0  0  0  0  0
    5.4838    0.0287    0.0006 C   0  0  0  0  0  0  0  0  0  0  0  0
    1.9804    1.1239   -0.0003 C   0  0  0  0  0  0  0  0  0  0  0  0
    3.0067   -1.0635   -0.0003 C   0  0  0  0  0  0  0  0  0  0  0  0
    0.7123    0.5303    0.0001 C   0  0  0  0  0  0  0  0  0  0  0  0
    1.7451   -1.6592    0.0000 C   0  0  0  0  0  0  0  0  0  0  0  0
    0.5947   -0.8612    0.0002 C   0  0  0  0  0  0  0  0  0  0  0  0
   -0.4931    1.3841    0.0004 C   0  0  0  0  0  0  0  0  0  0  0  0
   -0.7369   -1.5006    0.0000 C   0  0  0  0  0  0  0  0  0  0  0  0
   -0.3902    2.6045   -0.0007 O   0  0  0  0  0  0  0  0  0  0  0  0
   -1.8247    0.7447    0.0003 C   0  0  0  0  0  0  0  0  0  0  0  0
   -0.8403   -2.7210   -0.0004 O   0  0  0  0  0  0  0  0  0  0  0  0
   -1.9423   -0.6468    0.0003 C   0  0  0  0  0  0  0  0  0  0  0  0
   -2.9751    1.5426    0.0001 C   0  0  0  0  0  0  0  0  0  0  0  0
   -3.2103   -1.2404   -0.0001 C   0  0  0  0  0  0  0  0  0  0  0  0
   -4.2367    0.9470    0.0001 C   0  0  0  0  0  0  0  0  0  0  0  0
   -4.3541   -0.4415    0.0000 C   0  0  0  0  0  0  0  0  0  0  0  0
  1  2  1  0  0  0  0 
  1  3  1  0  0  0  0 
  4  2  2  0  0  0  0 
  2  5  1  0  0  0  0 
  6  4  1  0  0  0  0 
  7  5  2  0  0  0  0 
  6  8  2  0  0  0  0 
  6  9  1  0  0  0  0 
  8  7  1  0  0  0  0 
  8 10  1  0  0  0  0 
 11  9  2  0  0  0  0 
 12  9  1  0  0  0  0 
 13 10  2  0  0  0  0 
 14 10  1  0  0  0  0 
 12 14  1  0  0  0  0 
 12 15  2  0  0  0  0 
 14 16  2  0  0  0  0 
 15 17  1  0  0  0  0 
 16 18  1  0  0  0  0 
 17 18  2  0  0  0  0 
M  END
> <Name>
2-METHOXY-9,10-ANTHRACENEDIONE

> <Source>
Chemidplus3DMolFile

> <Tox>
-10.164

> <CAS>
3274-20-2

$$$$

  CDK

 20 22  0  0  0  0  0  0  0  0999 V2000
    1.3101    1.7117    0.5918 S   0  0  0  0  0  0  0  0  0  0  0  0
   -0.1098    0.6750    0.6535 C   0  0  0  0  0  0  0  0  0  0  0  0
    2.5549    0.6760   -0.1011 C   0  0  0  0  0  0  0  0  0  0  0  0
   -0.1102   -0.6745    0.6543 C   0  0  0  0  0  0  0  0  0  0  0  0
   -1.4344    1.3977    0.6858 C   0  0  0  0  0  0  0  0  0  0  0  0
    2.5541   -0.6777   -0.1017 C   0  0  0  0  0  0  0  0  0  0  0  0
    3.6210    1.4188   -0.6761 C   0  0  0  0  0  0  0  0  0  0  0  0
    1.3090   -1.7123    0.5921 S   0  0  0  0  0  0  0  0  0  0  0  0
   -1.4353   -1.3961    0.6885 C   0  0  0  0  0  0  0  0  0  0  0  0
   -2.5033    0.7011   -0.0809 C   0  0  0  0  0  0  0  0  0  0  0  0
   -1.6186    2.4250    1.3002 O   0  0  0  0  0  0  0  0  0  0  0  0
    3.6188   -1.4206   -0.6792 C   0  0  0  0  0  0  0  0  0  0  0  0
    4.4899    2.0280   -1.1448 N   0  0  0  0  0  0  0  0  0  0  0  0
   -2.5036   -0.7005   -0.0799 C   0  0  0  0  0  0  0  0  0  0  0  0
   -1.6202   -2.4215    1.3061 O   0  0  0  0  0  0  0  0  0  0  0  0
   -3.4918    1.3993   -0.7661 C   0  0  0  0  0  0  0  0  0  0  0  0
    4.4869   -2.0288   -1.1506 N   0  0  0  0  0  0  0  0  0  0  0  0
   -3.4919   -1.3995   -0.7645 C   0  0  0  0  0  0  0  0  0  0  0  0
   -4.4726    0.6942   -1.4626 C   0  0  0  0  0  0  0  0  0  0  0  0
   -4.4725   -0.6950   -1.4620 C   0  0  0  0  0  0  0  0  0  0  0  0
  1  2  1  0  0  0  0 
  1  3  1  0  0  0  0 
  2  4  2  0  0  0  0 
  2  5  1  0  0  0  0 
  6  3  2  0  0  0  0 
  3  7  1  0  0  0  0 
  4  8  1  0  0  0  0 
  4  9  1  0  0  0  0 
  5 10  1  0  0  0  0 
  5 11  2  0  0  0  0 
  8  6  1  0  0  0  0 
  6 12  1  0  0  0  0 
  7 13  3  0  0  0  0 
  9 14  1  0  0  0  0 
  9 15  2  0  0  0  0 
 14 10  1  0  0  0  0 
 16 10  2  0  0  0  0 
 12 17  3  0  0  0  0 
 14 18  2  0  0  0  0 
 19 16  1  0  0  0  0 
 18 20  1  0  0  0  0 
 20 19  2  0  0  0  0 
M  END
> <Name>
DITHIANONE

> <Source>
DougDB3DMolFile

> <Tox>
-10.693

> <CAS>
3347-22-6

$$$$

  CDK

  7  6  0  0  0  0  0  0  0  0999 V2000
    2.0988    1.2127    0.0000 C   0  0  0  0  0  0  0  0  0  0  0  0
    0.6996    1.2127    0.0000 C   0  0  0  0  0  0  0  0  0  0  0  0
    0.0000    0.0000    0.0000 Br  0  0  0  0  0  0  0  0  0  0  0  0
    0.0000    2.4253    0.0000 C   0  0  0  0  0  0  0  0  0  0  0  0
    0.6996    3.6380    0.0000 C   0  0  0  0  0  0  0  0  0  0  0  0
    0.0000    4.8506    0.0000 C   0  0  0  0  0  0  0  0  0  0  0  0
    0.6996    6.0633    0.0000 C   0  0  0  0  0  0  0  0  0  0  0  0
  1  2  1  0  0  0  0 
  2  3  1  0  0  0  0 
  2  4  1  0  0  0  0 
  4  5  1  0  0  0  0 
  5  6  1  0  0  0  0 
  6  7  1  0  0  0  0 
M  END
> <Name>
2-BROMOHEXANE

> <Source>
IndexNet2DMolFile

> <Tox>
0.860

> <CAS>
3377-86-4

$$$$

  CDK

 19 18  0  0  0  0  0  0  0  0999 V2000
    1.1525   -0.0000    0.0000 C   0  0  0  0  0  0  0  0  0  0  0  0
    2.3256   -0.6792    0.0000 C   0  0  0  0  0  0  0  0  0  0  0  0
    0.0000   -0.6792    0.0000 Cl  0  0  0  0  0  0  0  0  0  0  0  0
    3.4988   -0.0000    0.0000 C   0  0  0  0  0  0  0  0  0  0  0  0
    4.5895   -0.6792    0.0000 C   0  0  0  0  0  0  0  0  0  0  0  0
    5.7627   -0.0000    0.0000 C   0  0  0  0  0  0  0  0  0  0  0  0
    6.9358   -0.6792    0.0000 C   0  0  0  0  0  0  0  0  0  0  0  0
    8.0266   -0.0000    0.0000 C   0  0  0  0  0  0  0  0  0  0  0  0
    9.1997   -0.6792    0.0000 C   0  0  0  0  0  0  0  0  0  0  0  0
   10.3522   -0.0000    0.0000 C   0  0  0  0  0  0  0  0  0  0  0  0
   11.4636   -0.6792    0.0000 C   0  0  0  0  0  0  0  0  0  0  0  0
   12.6161   -0.0000    0.0000 C   0  0  0  0  0  0  0  0  0  0  0  0
   13.7892   -0.6792    0.0000 C   0  0  0  0  0  0  0  0  0  0  0  0
   14.8800   -0.0000    0.0000 C   0  0  0  0  0  0  0  0  0  0  0  0
   16.0531   -0.6792    0.0000 C   0  0  0  0  0  0  0  0  0  0  0  0
   17.1645   -0.0000    0.0000 C   0  0  0  0  0  0  0  0  0  0  0  0
   18.3170   -0.6792    0.0000 C   0  0  0  0  0  0  0  0  0  0  0  0
   19.4901   -0.0000    0.0000 C   0  0  0  0  0  0  0  0  0  0  0  0
   20.5809   -0.6792    0.0000 C   0  0  0  0  0  0  0  0  0  0  0  0
  1  2  1  0  0  0  0 
  1  3  1  0  0  0  0 
  2  4  1  0  0  0  0 
  4  5  1  0  0  0  0 
  5  6  1  0  0  0  0 
  6  7  1  0  0  0  0 
  7  8  1  0  0  0  0 
  8  9  1  0  0  0  0 
  9 10  1  0  0  0  0 
 10 11  1  0  0  0  0 
 11 12  1  0  0  0  0 
 12 13  1  0  0  0  0 
 13 14  1  0  0  0  0 
 14 15  1  0  0  0  0 
 15 16  1  0  0  0  0 
 16 17  1  0  0  0  0 
 17 18  1  0  0  0  0 
 18 19  1  0  0  0  0 
M  END
> <Name>
1-CHLOROOCTADECANE

> <Source>
DSSTox2DMolFile

> <Tox>
-4.767

> <CAS>
3386-33-2

$$$$

  CDK

  7  6  0  0  0  0  0  0  0  0999 V2000
    2.7231    1.0126    3.4287 C   0  0  0  0  0  0  0  0  0  0  0  0
    3.4561    1.2525    2.1050 C   0  0  0  0  0  0  0  0  0  0  0  0
    1.6418    2.0434    3.7180 C   0  0  0  0  0  0  0  0  0  0  0  0
    4.1949    2.5544    2.1330 C   0  0  0  0  0  0  0  0  0  0  0  0
    2.4893    1.2286    0.9302 C   0  0  0  0  0  0  0  0  0  0  0  0
    0.7681    1.6240    4.8772 C   0  0  0  0  0  0  0  0  0  0  0  0
    5.5195    2.6340    2.1672 C   0  0  0  0  0  0  0  0  0  0  0  0
  1  2  1  0  0  0  0 
  1  3  1  0  0  0  0 
  2  4  1  0  0  0  0 
  2  5  1  0  0  0  0 
  3  6  1  0  0  0  0 
  4  7  2  0  0  0  0 
M  END
> <Name>
3-METHYL-1-HEXENE

> <Source>
NIST3DMolFile

> <Tox>
1.916

> <CAS>
3404-61-3

$$$$

  CDK

  7  6  0  0  0  0  0  0  0  0999 V2000
    1.3960    1.7698    0.6308 C   0  0  0  0  0  0  0  0  0  0  0  0
    1.0045    1.6997    2.0907 C   0  0  0  0  0  0  0  0  0  0  0  0
    1.9738    2.4302    2.9494 C   0  0  0  0  0  0  0  0  0  0  0  0
    2.4958    1.9501    4.0860 C   0  0  0  0  0  0  0  0  0  0  0  0
    3.4585    2.7690    4.8905 C   0  0  0  0  0  0  0  0  0  0  0  0
    2.1741    0.6078    4.6352 C   0  0  0  0  0  0  0  0  0  0  0  0
    4.8935    2.4297    4.5454 C   0  0  0  0  0  0  0  0  0  0  0  0
  1  2  1  0  0  0  0 
  2  3  1  0  0  0  0 
  3  4  2  0  0  0  0 
  4  5  1  0  0  0  0 
  4  6  1  0  0  0  0 
  5  7  1  0  0  0  0 
M  END
> <Name>
3-METHYL-3-HEXENE

> <Source>
NIST3DMolFile

> <Tox>
1.915

> <CAS>
3404-65-7

$$$$

  CDK

  7  6  0  0  0  0  0  0  0  0999 V2000
    2.0649    2.7228    3.1760 C   0  0  0  0  0  0  0  0  0  0  0  0
    2.6670    2.1065    1.9245 C   0  0  0  0  0  0  0  0  0  0  0  0
    4.1572    1.9075    1.9878 C   0  0  0  0  0  0  0  0  0  0  0  0
    1.9854    0.7665    1.6168 C   0  0  0  0  0  0  0  0  0  0  0  0
    4.8871    2.0426    3.0939 C   0  0  0  0  0  0  0  0  0  0  0  0
    4.7839    1.5317    0.6891 C   0  0  0  0  0  0  0  0  0  0  0  0
    0.5317    0.9573    1.2475 C   0  0  0  0  0  0  0  0  0  0  0  0
  1  2  1  0  0  0  0 
  2  3  1  0  0  0  0 
  2  4  1  0  0  0  0 
  5  3  2  0  0  0  0 
  3  6  1  0  0  0  0 
  4  7  1  0  0  0  0 
M  END
> <Name>
2,3-DIMETHYL-1-PENTENE

> <Source>
NIST3DMolFile

> <Tox>
1.909

> <CAS>
3404-72-6

$$$$

  CDK

  6  6  0  0  0  0  0  0  0  0999 V2000
    2.5755    1.2625    0.0000 I   0  0  0  0  0  0  0  0  0  0  0  0
    1.6665    0.9595    0.0000 C   0  0  0  0  0  0  0  0  0  0  0  0
    1.3130    0.0000    0.0000 C   0  0  0  0  0  0  0  0  0  0  0  0
    0.8080    1.5150    0.0000 S   0  0  0  0  0  0  0  0  0  0  0  0
    0.3030    0.0000    0.0000 C   0  0  0  0  0  0  0  0  0  0  0  0
    0.0000    0.9595    0.0000 C   0  0  0  0  0  0  0  0  0  0  0  0
  1  2  1  0  0  0  0 
  2  3  2  0  0  0  0 
  4  2  1  0  0  0  0 
  3  5  1  0  0  0  0 
  6  4  1  0  0  0  0 
  5  6  2  0  0  0  0 
M  END
> <Name>
2-IODOTHIOPHENE

> <Source>
NIST2DMolFile

> <Tox>
0.906

> <CAS>
3437-95-4

$$$$

  CDK

 20 19  0  0  0  0  0  0  0  0999 V2000
    0.0000   -0.6750    0.0000 C   0  0  0  0  0  0  0  0  0  0  0  0
    1.1540   -0.0000    0.0000 C   0  0  0  0  0  0  0  0  0  0  0  0
    2.2862   -0.6750    0.0000 C   0  0  0  0  0  0  0  0  0  0  0  0
    3.4402   -0.0000    0.0000 C   0  0  0  0  0  0  0  0  0  0  0  0
    4.5942   -0.6750    0.0000 C   0  0  0  0  0  0  0  0  0  0  0  0
    5.7482   -0.0000    0.0000 C   0  0  0  0  0  0  0  0  0  0  0  0
    6.8805   -0.6750    0.0000 C   0  0  0  0  0  0  0  0  0  0  0  0
    8.0127   -0.0000    0.0000 C   0  0  0  0  0  0  0  0  0  0  0  0
    9.1667   -0.6750    0.0000 C   0  0  0  0  0  0  0  0  0  0  0  0
   10.3207   -0.0000    0.0000 C   0  0  0  0  0  0  0  0  0  0  0  0
   11.4529   -0.6750    0.0000 C   0  0  0  0  0  0  0  0  0  0  0  0
   12.6069   -0.0000    0.0000 C   0  0  0  0  0  0  0  0  0  0  0  0
   13.7609   -0.6750    0.0000 C   0  0  0  0  0  0  0  0  0  0  0  0
   14.8932   -0.0000    0.0000 C   0  0  0  0  0  0  0  0  0  0  0  0
   16.0254   -0.6750    0.0000 C   0  0  0  0  0  0  0  0  0  0  0  0
   17.1794   -0.0000    0.0000 C   0  0  0  0  0  0  0  0  0  0  0  0
   18.3334   -0.6750    0.0000 C   0  0  0  0  0  0  0  0  0  0  0  0
   19.4874   -0.0000    0.0000 C   0  0  0  0  0  0  0  0  0  0  0  0
   20.6196   -0.6750    0.0000 C   0  0  0  0  0  0  0  0  0  0  0  0
   21.7736   -0.0000    0.0000 C   0  0  0  0  0  0  0  0  0  0  0  0
  1  2  2  0  0  0  0 
  2  3  1  0  0  0  0 
  3  4  1  0  0  0  0 
  4  5  1  0  0  0  0 
  5  6  1  0  0  0  0 
  6  7  1  0  0  0  0 
  7  8  1  0  0  0  0 
  8  9  1  0  0  0  0 
  9 10  1  0  0  0  0 
 10 11  1  0  0  0  0 
 11 12  1  0  0  0  0 
 12 13  1  0  0  0  0 
 13 14  1  0  0  0  0 
 14 15  1  0  0  0  0 
 15 16  1  0  0  0  0 
 16 17  1  0  0  0  0 
 17 18  1  0  0  0  0 
 18 19  1  0  0  0  0 
 19 20  1  0  0  0  0 
M  END
> <Name>
1-EICOSENE

> <Source>
DSSTox2DMolFile

> <Tox>
-4.975

> <CAS>
3452-07-1

$$$$

  CDK

  9  8  0  0  0  0  0  0  0  0999 V2000
    6.1064    2.0287    0.9791 C   0  0  0  0  0  0  0  0  0  0  0  0
    4.8273    2.8511    1.0248 C   0  0  0  0  0  0  0  0  0  0  0  0
    6.7883    1.9832    2.3381 C   0  0  0  0  0  0  0  0  0  0  0  0
    3.7787    2.1976    1.9125 C   0  0  0  0  0  0  0  0  0  0  0  0
    7.9612    1.0180    2.3466 C   0  0  0  0  0  0  0  0  0  0  0  0
    2.5745    3.1093    2.1073 C   0  0  0  0  0  0  0  0  0  0  0  0
    8.6462    0.9915    3.6942 C   0  0  0  0  0  0  0  0  0  0  0  0
    1.5741    2.4915    2.9385 C   0  0  0  0  0  0  0  0  0  0  0  0
    0.7430    1.9853    3.6256 C   0  0  0  0  0  0  0  0  0  0  0  0
  1  2  1  0  0  0  0 
  1  3  1  0  0  0  0 
  2  4  1  0  0  0  0 
  3  5  1  0  0  0  0 
  4  6  1  0  0  0  0 
  5  7  1  0  0  0  0 
  6  8  1  0  0  0  0 
  8  9  3  0  0  0  0 
M  END
> <Name>
1-NONYNE

> <Source>
NIST3DMolFile

> <Tox>
0.797

> <CAS>
3452-09-3

$$$$

  CDK

 10 10  0  0  0  0  0  0  0  0999 V2000
    2.4253    2.0988    0.0000 C   0  0  0  0  0  0  0  0  0  0  0  0
    2.4253    0.6996    0.0000 C   0  0  0  0  0  0  0  0  0  0  0  0
    3.6380    2.7984    0.0000 C   0  0  0  0  0  0  0  0  0  0  0  0
    3.6380    0.0000    0.0000 C   0  0  0  0  0  0  0  0  0  0  0  0
    1.2127    0.0000    0.0000 C   0  0  0  0  0  0  0  0  0  0  0  0
    4.8506    2.0988    0.0000 C   0  0  0  0  0  0  0  0  0  0  0  0
    4.8506    0.6996    0.0000 C   0  0  0  0  0  0  0  0  0  0  0  0
    0.0000    0.6996    0.0000 C   0  0  0  0  0  0  0  0  0  0  0  0
    6.0633    2.7984    0.0000 C   0  0  0  0  0  0  0  0  0  0  0  0
    7.2760    2.0988    0.0000 C   0  0  0  0  0  0  0  0  0  0  0  0
  1  2  2  0  0  0  0 
  1  3  1  0  0  0  0 
  2  4  1  0  0  0  0 
  2  5  1  0  0  0  0 
  6  3  2  0  0  0  0 
  4  7  2  0  0  0  0 
  5  8  1  0  0  0  0 
  7  6  1  0  0  0  0 
  6  9  1  0  0  0  0 
  9 10  2  0  0  0  0 
M  END
> <Name>
P-ETHYLSTYRENE

> <Source>
IndexNet2DMolFile

> <Tox>
-0.025

> <CAS>
3454-07-7

$$$$

  CDK

 18 17  0  0  0  0  0  0  0  0999 V2000
    0.0000    0.0000    0.0000 Br  0  0  0  0  0  0  0  0  0  0  0  0
   -0.5200   -0.1200   -1.8400 C   0  0  0  0  0  0  0  0  0  0  0  0
   -0.7000    1.3000   -2.3800 C   0  0  0  0  0  0  0  0  0  0  0  0
   -1.9600    1.9800   -1.8400 C   0  0  0  0  0  0  0  0  0  0  0  0
   -1.9600    3.5000   -2.0800 C   0  0  0  0  0  0  0  0  0  0  0  0
   -3.0200    4.2200   -1.2600 C   0  0  0  0  0  0  0  0  0  0  0  0
   -2.7800    5.7200   -1.2200 C   0  0  0  0  0  0  0  0  0  0  0  0
   -3.6800    6.4200   -0.1800 C   0  0  0  0  0  0  0  0  0  0  0  0
   -3.2400    7.8600    0.1000 C   0  0  0  0  0  0  0  0  0  0  0  0
   -4.0000    8.4800    1.2800 C   0  0  0  0  0  0  0  0  0  0  0  0
   -3.4200    9.8400    1.7000 C   0  0  0  0  0  0  0  0  0  0  0  0
   -4.0600   10.3800    2.9800 C   0  0  0  0  0  0  0  0  0  0  0  0
   -3.3800   11.6600    3.4800 C   0  0  0  0  0  0  0  0  0  0  0  0
   -3.9600   12.1600    4.8000 C   0  0  0  0  0  0  0  0  0  0  0  0
   -3.2400   13.3800    5.3400 C   0  0  0  0  0  0  0  0  0  0  0  0
   -3.8000   13.8400    6.6800 C   0  0  0  0  0  0  0  0  0  0  0  0
   -3.0400   15.0400    7.2600 C   0  0  0  0  0  0  0  0  0  0  0  0
   -3.5800   15.5200    8.6000 C   0  0  0  0  0  0  0  0  0  0  0  0
  1  2  1  0  0  0  0 
  2  3  1  0  0  0  0 
  3  4  1  0  0  0  0 
  4  5  1  0  0  0  0 
  5  6  1  0  0  0  0 
  6  7  1  0  0  0  0 
  7  8  1  0  0  0  0 
  8  9  1  0  0  0  0 
  9 10  1  0  0  0  0 
 10 11  1  0  0  0  0 
 11 12  1  0  0  0  0 
 12 13  1  0  0  0  0 
 13 14  1  0  0  0  0 
 14 15  1  0  0  0  0 
 15 16  1  0  0  0  0 
 16 17  1  0  0  0  0 
 17 18  1  0  0  0  0 
M  END
> <Name>
1-BROMOHEPTADECANE

> <Source>
NIH3DMolFile

> <Tox>
-4.738

> <CAS>
3508-00-7

$$$$

  CDK

  9  8  0  0  0  0  0  0  0  0999 V2000
    3.8275    2.2228    2.9437 C   0  0  0  0  0  0  0  0  0  0  0  0
    5.3308    2.2162    3.2587 C   0  0  0  0  0  0  0  0  0  0  0  0
    3.3669    0.9452    2.2543 C   0  0  0  0  0  0  0  0  0  0  0  0
    6.1258    2.0812    1.9610 C   0  0  0  0  0  0  0  0  0  0  0  0
    5.6535    1.0505    4.1922 C   0  0  0  0  0  0  0  0  0  0  0  0
    5.7046    3.5288    3.9442 C   0  0  0  0  0  0  0  0  0  0  0  0
    1.8701    0.9627    1.9466 C   0  0  0  0  0  0  0  0  0  0  0  0
    1.0652    1.0668    3.2327 C   0  0  0  0  0  0  0  0  0  0  0  0
    1.5376    2.1029    0.9968 C   0  0  0  0  0  0  0  0  0  0  0  0
  1  2  1  0  0  0  0 
  1  3  1  0  0  0  0 
  2  4  1  0  0  0  0 
  2  5  1  0  0  0  0 
  2  6  1  0  0  0  0 
  3  7  1  0  0  0  0 
  7  8  1  0  0  0  0 
  7  9  1  0  0  0  0 
M  END
> <Name>
2,2,5-TRIMETHYLHEXANE

> <Source>
NIST3DMolFile

> <Tox>
1.220

> <CAS>
3522-94-9

$$$$

  CDK

 12 11  0  0  0  0  0  0  0  0999 V2000
   11.5436   -0.0000    0.0000 C   0  0  0  0  0  0  0  0  0  0  0  0
   10.3880   -0.6604    0.0000 C   0  0  0  0  0  0  0  0  0  0  0  0
   12.6993   -0.6604    0.0000 O   0  0  0  0  0  0  0  0  0  0  0  0
    9.2324   -0.0000    0.0000 S   0  0  0  0  0  0  0  0  0  0  0  0
    8.0894   -0.6604    0.0000 C   0  0  0  0  0  0  0  0  0  0  0  0
    6.9338   -0.0000    0.0000 C   0  0  0  0  0  0  0  0  0  0  0  0
    5.7782   -0.6604    0.0000 C   0  0  0  0  0  0  0  0  0  0  0  0
    4.6225   -0.0000    0.0000 C   0  0  0  0  0  0  0  0  0  0  0  0
    3.4669   -0.6604    0.0000 C   0  0  0  0  0  0  0  0  0  0  0  0
    2.3113   -0.0000    0.0000 C   0  0  0  0  0  0  0  0  0  0  0  0
    1.1556   -0.6604    0.0000 C   0  0  0  0  0  0  0  0  0  0  0  0
    0.0000   -0.0000    0.0000 C   0  0  0  0  0  0  0  0  0  0  0  0
  1  2  1  0  0  0  0 
  1  3  1  0  0  0  0 
  2  4  1  0  0  0  0 
  4  5  1  0  0  0  0 
  5  6  1  0  0  0  0 
  6  7  1  0  0  0  0 
  7  8  1  0  0  0  0 
  8  9  1  0  0  0  0 
  9 10  1  0  0  0  0 
 10 11  1  0  0  0  0 
 11 12  1  0  0  0  0 
M  END
> <Name>
ETHANOL, 2-(OCTYLTHIO)-

> <Source>
DSSTox2DMolFile

> <Tox>
-3.227

> <CAS>
3547-33-9

$$$$

  CDK

 14 14  0  0  0  0  0  0  0  0999 V2000
    1.5094    3.4547    0.0000 C   0  0  0  0  0  0  0  0  0  0  0  0
    1.0092    2.5922    0.0000 C   0  0  0  0  0  0  0  0  0  0  0  0
    2.5117    3.4562    0.0000 C   0  0  0  0  0  0  0  0  0  0  0  0
    0.0050    2.5998    0.0000 O   0  0  0  0  0  0  0  0  0  0  0  0
    1.5049    1.7255    0.0000 C   0  0  0  0  0  0  0  0  0  0  0  0
    3.0120    2.5900    0.0000 C   0  0  0  0  0  0  0  0  0  0  0  0
    2.5112    1.7220    0.0000 C   0  0  0  0  0  0  0  0  0  0  0  0
    0.9996    0.8633    0.0000 N   0  0  0  0  0  0  0  0  0  0  0  0
    4.0083    2.5998    0.0000 C   0  0  0  0  0  0  0  0  0  0  0  0
    0.0000    0.8682    0.0000 O   0  0  0  0  0  0  0  0  0  0  0  0
    1.4993    0.0000    0.0000 O   0  0  0  0  0  0  0  0  0  0  0  0
    4.5030    3.4682    0.0000 C   0  0  0  0  0  0  0  0  0  0  0  0
    4.5081    1.7366    0.0000 C   0  0  0  0  0  0  0  0  0  0  0  0
    5.5025    3.4731    0.0000 C   0  0  0  0  0  0  0  0  0  0  0  0
  1  2  1  0  0  0  0 
  3  1  2  0  0  0  0 
  2  4  1  0  0  0  0 
  2  5  2  0  0  0  0 
  6  3  1  0  0  0  0 
  5  7  1  0  0  0  0 
  5  8  1  0  0  0  0 
  7  6  2  0  0  0  0 
  6  9  1  0  0  0  0 
  8 10  2  0  0  0  0 
  8 11  2  0  0  0  0 
  9 12  1  0  0  0  0 
  9 13  1  0  0  0  0 
 12 14  1  0  0  0  0 
M  END
> <Name>
4-(SEC-BUTYL)-2-NITROPHENOL

> <Source>
NIST2DMolFile

> <Tox>
-2.339

> <CAS>
3555-18-8

$$$$

  CDK

 21 20  0  0  0  0  0  0  0  0999 V2000
   -0.0001   -0.0006    0.0017 Si  0  0  0  0  0  0  0  0  0  0  0  0
   -0.9633   -0.4955    1.2714 O   0  0  0  0  0  0  0  0  0  0  0  0
    0.9637    1.2686    0.4966 O   0  0  0  0  0  0  0  0  0  0  0  0
    0.9624   -1.2705   -0.4939 O   0  0  0  0  0  0  0  0  0  0  0  0
   -0.9636    0.4957   -1.2672 O   0  0  0  0  0  0  0  0  0  0  0  0
   -2.1452   -1.6143    1.6626 Si  0  0  0  0  0  0  0  0  0  0  0  0
    2.1458    1.6597    1.6150 Si  0  0  0  0  0  0  0  0  0  0  0  0
    2.1434   -1.6637   -1.6127 Si  0  0  0  0  0  0  0  0  0  0  0  0
   -2.1445    1.6151   -1.6590 Si  0  0  0  0  0  0  0  0  0  0  0  0
   -2.6885   -1.4230    3.4524 C   0  0  0  0  0  0  0  0  0  0  0  0
   -3.6532   -1.3995    0.5583 C   0  0  0  0  0  0  0  0  0  0  0  0
   -1.4826   -3.3584    1.4271 C   0  0  0  0  0  0  0  0  0  0  0  0
    2.6683    3.4530    1.3982 C   0  0  0  0  0  0  0  0  0  0  0  0
    1.4970    1.4393    3.3670 C   0  0  0  0  0  0  0  0  0  0  0  0
    3.6632    0.5700    1.4026 C   0  0  0  0  0  0  0  0  0  0  0  0
    3.6618   -0.5752   -1.4013 C   0  0  0  0  0  0  0  0  0  0  0  0
    1.4817   -1.4261   -3.3569 C   0  0  0  0  0  0  0  0  0  0  0  0
    2.6682   -3.4597   -1.4177 C   0  0  0  0  0  0  0  0  0  0  0  0
   -2.6804    1.4142   -3.4511 C   0  0  0  0  0  0  0  0  0  0  0  0
   -3.6569    1.4123   -0.5605 C   0  0  0  0  0  0  0  0  0  0  0  0
   -1.4774    3.3589   -1.4325 C   0  0  0  0  0  0  0  0  0  0  0  0
  1  2  1  0  0  0  0 
  1  3  1  0  0  0  0 
  1  4  1  0  0  0  0 
  1  5  1  0  0  0  0 
  6  2  1  0  0  0  0 
  7  3  1  0  0  0  0 
  8  4  1  0  0  0  0 
  9  5  1  0  0  0  0 
  6 10  1  0  0  0  0 
  6 11  1  0  0  0  0 
  6 12  1  0  0  0  0 
  7 13  1  0  0  0  0 
  7 14  1  0  0  0  0 
  7 15  1  0  0  0  0 
  8 16  1  0  0  0  0 
  8 17  1  0  0  0  0 
  8 18  1  0  0  0  0 
  9 19  1  0  0  0  0 
  9 20  1  0  0  0  0 
  9 21  1  0  0  0  0 
M  END
> <Name>
TETRAKIS(TRIMETHYLSILOXY)SILANE

> <Source>
Chemidplus3DMolFile

> <Tox>
-1.173

> <CAS>
3555-47-3

$$$$

  CDK

 20 19  0  0  0  0  0  0  0  0999 V2000
    0.0000    1.4553    0.0000 C   0  0  0  0  0  0  0  0  0  0  0  0
    0.8531    1.9571    0.0000 C   0  0  0  0  0  0  0  0  0  0  0  0
    1.7062    1.5054    0.0000 C   0  0  0  0  0  0  0  0  0  0  0  0
    2.6094    2.0073    0.0000 C   0  0  0  0  0  0  0  0  0  0  0  0
    3.4625    1.5054    0.0000 C   0  0  0  0  0  0  0  0  0  0  0  0
    4.3156    2.0073    0.0000 C   0  0  0  0  0  0  0  0  0  0  0  0
    3.4625    0.5018    0.0000 C   0  0  0  0  0  0  0  0  0  0  0  0
    5.2189    1.5054    0.0000 O   0  0  0  0  0  0  0  0  0  0  0  0
    2.6094    0.0000    0.0000 C   0  0  0  0  0  0  0  0  0  0  0  0
    6.0719    2.0073    0.0000 P   0  0  0  0  0  0  0  0  0  0  0  0
    6.9250    1.5054    0.0000 O   0  0  0  0  0  0  0  0  0  0  0  0
    6.0719    3.0109    0.0000 O   0  0  0  0  0  0  0  0  0  0  0  0
    7.8283    2.0073    0.0000 C   0  0  0  0  0  0  0  0  0  0  0  0
    8.6814    1.5054    0.0000 C   0  0  0  0  0  0  0  0  0  0  0  0
    9.5345    2.0073    0.0000 C   0  0  0  0  0  0  0  0  0  0  0  0
    8.6814    0.5018    0.0000 C   0  0  0  0  0  0  0  0  0  0  0  0
   10.3875    1.5054    0.0000 C   0  0  0  0  0  0  0  0  0  0  0  0
    9.5345    0.0000    0.0000 C   0  0  0  0  0  0  0  0  0  0  0  0
   11.2908    2.0073    0.0000 C   0  0  0  0  0  0  0  0  0  0  0  0
   12.1439    1.5054    0.0000 C   0  0  0  0  0  0  0  0  0  0  0  0
  1  2  1  0  0  0  0 
  2  3  1  0  0  0  0 
  3  4  1  0  0  0  0 
  4  5  1  0  0  0  0 
  5  6  1  0  0  0  0 
  5  7  1  0  0  0  0 
  6  8  1  0  0  0  0 
  7  9  1  0  0  0  0 
  8 10  1  0  0  0  0 
 10 11  1  0  0  0  0 
 10 12  2  0  0  0  0 
 11 13  1  0  0  0  0 
 13 14  1  0  0  0  0 
 14 15  1  0  0  0  0 
 14 16  1  0  0  0  0 
 15 17  1  0  0  0  0 
 16 18  1  0  0  0  0 
 17 19  1  0  0  0  0 
 19 20  1  0  0  0  0 
M  END
> <Name>
Bis(2-ethylhexyl) hydrogen phosphite

> <Source>
NIST2DMolFile

> <Tox>
-4.237

> <CAS>
3658-48-8

$$$$

  CDK

  6  5  0  0  0  0  0  0  0  0999 V2000
    3.3163   -1.1533    0.0000 C   0  0  0  0  0  0  0  0  0  0  0  0
    3.9907   -0.0000    0.0000 C   0  0  0  0  0  0  0  0  0  0  0  0
    1.9874   -1.1533    0.0000 N   0  0  0  0  0  0  0  0  0  0  0  0
    1.3289   -0.0000    0.0000 C   0  0  0  0  0  0  0  0  0  0  0  0
    1.3289   -2.3066    0.0000 O   0  0  0  0  0  0  0  0  0  0  0  0
    0.0000   -0.0000    0.0000 C   0  0  0  0  0  0  0  0  0  0  0  0
  1  2  1  0  0  0  0 
  1  3  1  0  0  0  0 
  3  4  1  0  0  0  0 
  3  5  1  0  0  0  0 
  4  6  1  0  0  0  0 
M  END
> <Name>
DIETHYLHYDROXYLAMINE

> <Source>
DSSTox2DMolFile

> <Tox>
0.526

> <CAS>
3710-84-7

$$$$

  CDK

  6  5  0  0  0  0  0  0  0  0999 V2000
    1.1553   -1.3355    0.0000 C   0  0  0  0  0  0  0  0  0  0  0  0
    2.3105   -1.9917    0.0000 C   0  0  0  0  0  0  0  0  0  0  0  0
    0.0000   -1.9917    0.0000 O   0  0  0  0  0  0  0  0  0  0  0  0
    1.1553   -0.0000    0.0000 O   0  0  0  0  0  0  0  0  0  0  0  0
    3.4658   -1.3355    0.0000 C   0  0  0  0  0  0  0  0  0  0  0  0
    4.6211   -1.9917    0.0000 C   0  0  0  0  0  0  0  0  0  0  0  0
  1  2  1  0  0  0  0 
  1  3  1  0  0  0  0 
  1  4  2  0  0  0  0 
  2  5  2  0  0  0  0 
  5  6  1  0  0  0  0 
M  END
> <Name>
CROTONIC ACID

> <Source>
DSSTox2DMolFile

> <Tox>
-0.488

> <CAS>
3724-65-0

$$$$

  CDK

 10 10  0  0  0  0  0  0  0  0999 V2000
    0.0587   -1.4130    0.0000 C   0  0  0  0  0  0  0  0  0  0  0  0
   -0.1851   -0.6249    0.0000 C   0  0  0  0  0  0  0  0  0  0  0  0
    0.5294   -0.2124    0.0000 C   0  0  0  0  0  0  0  0  0  0  0  0
   -0.8996   -0.2124    0.0000 C   0  0  0  0  0  0  0  0  0  0  0  0
    0.5294    0.6126    0.0000 C   0  0  0  0  0  0  0  0  0  0  0  0
    1.3338   -0.3953    0.0000 C   0  0  0  0  0  0  0  0  0  0  0  0
   -0.8996    0.6126    0.0000 C   0  0  0  0  0  0  0  0  0  0  0  0
   -1.4602   -0.8176    0.0000 C   0  0  0  0  0  0  0  0  0  0  0  0
    1.0900    1.2179    0.0000 C   0  0  0  0  0  0  0  0  0  0  0  0
   -0.1851    1.0251    0.0000 C   0  0  0  0  0  0  0  0  0  0  0  0
  1  2  1  0  0  0  0 
  2  3  1  0  0  0  0 
  2  4  1  0  0  0  0 
  3  5  1  0  0  0  0 
  3  6  1  0  0  0  0 
  7  4  1  0  0  0  0 
  4  8  1  0  0  0  0 
  5  9  1  0  0  0  0 
  5 10  1  0  0  0  0 
 10  7  1  0  0  0  0 
M  END
> <Name>
Cyclohexane, 1,2,3,4-tetramethyl-

> <Source>
Smiles

> <Tox>
0.117

> <CAS>
3726-45-2

$$$$

  CDK

  8  8  0  0  0  0  0  0  0  0999 V2000
   -0.7714    0.3262    0.3221 C   0  0  0  0  0  0  0  0  0  0  0  0
    0.1276   -0.8426   -0.0722 C   0  0  0  0  0  0  0  0  0  0  0  0
    0.0463    1.5620   -0.0641 C   0  0  0  0  0  0  0  0  0  0  0  0
   -2.1377    0.2795   -0.3406 C   0  0  0  0  0  0  0  0  0  0  0  0
    1.5071   -0.3542    0.3612 C   0  0  0  0  0  0  0  0  0  0  0  0
    1.5136    1.1224   -0.0437 C   0  0  0  0  0  0  0  0  0  0  0  0
   -2.9298   -0.9426    0.0925 C   0  0  0  0  0  0  0  0  0  0  0  0
    2.6444   -1.1506   -0.2552 C   0  0  0  0  0  0  0  0  0  0  0  0
  1  2  1  0  0  0  0 
  1  3  1  0  0  0  0 
  1  4  1  0  0  0  0 
  5  2  1  0  0  0  0 
  3  6  1  0  0  0  0 
  4  7  1  0  0  0  0 
  5  6  1  0  0  0  0 
  5  8  1  0  0  0  0 
M  END
> <Name>
1-METHYL-3-ETHYLCYCLOPENTANE

> <Source>
Chemidplus3DMolFile

> <Tox>
0.799

> <CAS>
3726-47-4

$$$$

  CDK

  7  6  0  0  0  0  0  0  0  0999 V2000
   -1.0794   -0.6308    1.1508 O   0  0  0  0  0  0  0  0  0  0  0  0
   -1.2347   -0.0404    0.0826 C   0  0  0  0  0  0  0  0  0  0  0  0
   -0.0788    0.3599   -0.8232 C   0  0  0  0  0  0  0  0  0  0  0  0
   -2.6153    0.2898   -0.4239 C   0  0  0  0  0  0  0  0  0  0  0  0
    1.2553    0.0413   -0.2041 C   0  0  0  0  0  0  0  0  0  0  0  0
    1.8946    1.1210    0.6213 C   0  0  0  0  0  0  0  0  0  0  0  0
    1.8584   -1.1408   -0.4036 C   0  0  0  0  0  0  0  0  0  0  0  0
  1  2  2  0  0  0  0 
  3  2  1  0  0  0  0 
  2  4  1  0  0  0  0 
  3  5  1  0  0  0  0 
  5  6  1  0  0  0  0 
  5  7  2  0  0  0  0 
M  END
> <Name>
ISOMESITYL OXIDE

> <Source>
Chemidplus3DMolFile

> <Tox>
1.179

> <CAS>
3744-02-3

$$$$

  CDK

  7  6  0  0  0  0  0  0  0  0999 V2000
    2.7541    1.8979    3.2122 C   0  0  0  0  0  0  0  0  0  0  0  0
    4.2305    2.0724    2.8416 C   0  0  0  0  0  0  0  0  0  0  0  0
    1.8935    1.4041    2.1031 C   0  0  0  0  0  0  0  0  0  0  0  0
    4.4867    3.3076    1.9749 C   0  0  0  0  0  0  0  0  0  0  0  0
    4.8056    0.8077    2.2262 C   0  0  0  0  0  0  0  0  0  0  0  0
    0.6242    1.7630    1.9512 C   0  0  0  0  0  0  0  0  0  0  0  0
    3.9861    3.2137    0.5520 C   0  0  0  0  0  0  0  0  0  0  0  0
  1  2  1  0  0  0  0 
  1  3  1  0  0  0  0 
  2  4  1  0  0  0  0 
  2  5  1  0  0  0  0 
  3  6  2  0  0  0  0 
  4  7  1  0  0  0  0 
M  END
> <Name>
4-METHYL-1-HEXENE

> <Source>
NIST3DMolFile

> <Tox>
1.866

> <CAS>
3769-23-1

$$$$

  CDK

  8  8  0  0  0  0  0  0  0  0999 V2000
    1.9911    0.8294    0.7197 C   0  0  0  0  0  0  0  0  0  0  0  0
    2.1371    2.1761    1.4130 C   0  0  0  0  0  0  0  0  0  0  0  0
    0.9464    2.4023    2.3331 C   0  0  0  0  0  0  0  0  0  0  0  0
    3.4554    2.2497    2.1942 C   0  0  0  0  0  0  0  0  0  0  0  0
    4.6912    2.0705    1.3043 C   0  0  0  0  0  0  0  0  0  0  0  0
    3.6713    3.6030    2.8816 C   0  0  0  0  0  0  0  0  0  0  0  0
    5.8230    2.8413    1.9768 C   0  0  0  0  0  0  0  0  0  0  0  0
    5.1807    3.8030    2.9743 C   0  0  0  0  0  0  0  0  0  0  0  0
  1  2  1  0  0  0  0 
  2  3  1  0  0  0  0 
  2  4  1  0  0  0  0 
  5  4  1  0  0  0  0 
  4  6  1  0  0  0  0 
  7  5  1  0  0  0  0 
  6  8  1  0  0  0  0 
  8  7  1  0  0  0  0 
M  END
> <Name>
ISOPROPYLCYCLOPENTANE

> <Source>
NIST3DMolFile

> <Tox>
1.210

> <CAS>
3875-51-2

$$$$

  CDK

  5  4  0  0  0  0  0  0  0  0999 V2000
    2.5797    0.4961    0.0000 C   0  0  0  0  0  0  0  0  0  0  0  0
    1.7364    0.0000    0.0000 C   0  0  0  0  0  0  0  0  0  0  0  0
    3.4727    0.0000    0.0000 C   0  0  0  0  0  0  0  0  0  0  0  0
    0.8930    0.4961    0.0000 S   0  0  0  0  0  0  0  0  0  0  0  0
    0.0000    0.0000    0.0000 C   0  0  0  0  0  0  0  0  0  0  0  0
  1  2  1  0  0  0  0 
  1  3  1  0  0  0  0 
  2  4  1  0  0  0  0 
  4  5  1  0  0  0  0 
M  END
> <Name>
N-PROPYLMETHYLSULFIDE

> <Source>
NIST2DMolFile

> <Tox>
1.706

> <CAS>
3877-15-4

$$$$

  CDK

  9  8  0  0  0  0  0  0  0  0999 V2000
    0.0000    1.0139    0.0000 C   0  0  0  0  0  0  0  0  0  0  0  0
    0.8111    1.5208    0.0000 C   0  0  0  0  0  0  0  0  0  0  0  0
    1.6729    1.0139    0.0000 C   0  0  0  0  0  0  0  0  0  0  0  0
    0.8111    2.5347    0.0000 C   0  0  0  0  0  0  0  0  0  0  0  0
    1.0646    0.5576    0.0000 C   0  0  0  0  0  0  0  0  0  0  0  0
    1.6729    0.0000    0.0000 O   0  0  0  0  0  0  0  0  0  0  0  0
    2.5347    1.5208    0.0000 O   0  0  0  0  0  0  0  0  0  0  0  0
    3.4472    1.0646    0.0000 C   0  0  0  0  0  0  0  0  0  0  0  0
    4.3090    1.5715    0.0000 C   0  0  0  0  0  0  0  0  0  0  0  0
  1  2  1  0  0  0  0 
  2  3  1  0  0  0  0 
  2  4  1  0  0  0  0 
  2  5  1  0  0  0  0 
  3  6  2  0  0  0  0 
  3  7  1  0  0  0  0 
  7  8  1  0  0  0  0 
  8  9  1  0  0  0  0 
M  END
> <Name>
Propanoic acid, 2,2-dimethyl-, ethyl ester

> <Source>
NIST2DMolFile

> <Tox>
1.250

> <CAS>
3938-95-2

$$$$

  CDK

  8  7  0  0  0  0  0  0  0  0999 V2000
    3.4834    0.4976    0.0000 C   0  0  0  0  0  0  0  0  0  0  0  0
    2.5877    0.0000    0.0000 C   0  0  0  0  0  0  0  0  0  0  0  0
    4.3294    0.0000    0.0000 C   0  0  0  0  0  0  0  0  0  0  0  0
    1.7417    0.4976    0.0000 C   0  0  0  0  0  0  0  0  0  0  0  0
    5.1754    0.4976    0.0000 C   0  0  0  0  0  0  0  0  0  0  0  0
    0.8957    0.0000    0.0000 C   0  0  0  0  0  0  0  0  0  0  0  0
    6.0711    0.0000    0.0000 O   0  0  0  0  0  0  0  0  0  0  0  0
    0.0000    0.4976    0.0000 N   0  0  0  0  0  0  0  0  0  0  0  0
  1  2  1  0  0  0  0 
  1  3  1  0  0  0  0 
  2  4  1  0  0  0  0 
  3  5  1  0  0  0  0 
  4  6  1  0  0  0  0 
  5  7  1  0  0  0  0 
  6  8  1  0  0  0  0 
M  END
> <Name>
Hexanol, 6-amino-

> <Source>
NIST2DMolFile

> <Tox>
-2.620

> <CAS>
4048-33-3

$$$$

  CDK

 12 11  0  0  0  0  0  0  0  0999 V2000
    1.8187   -3.1500    0.0000 C   0  0  0  0  0  0  0  0  0  0  0  0
    0.6062   -2.4500    0.0000 C   0  0  0  0  0  0  0  0  0  0  0  0
    3.0311   -2.4500    0.0000 N   0  0  0  0  0  0  0  0  0  0  0  0
   -0.6062   -3.1500    0.0000 N   0  0  0  0  0  0  0  0  0  0  0  0
    4.2435   -3.1500    0.0000 C   0  0  0  0  0  0  0  0  0  0  0  0
   -1.8187   -2.4500    0.0000 C   0  0  0  0  0  0  0  0  0  0  0  0
    4.9435   -1.9376    0.0000 C   0  0  0  0  0  0  0  0  0  0  0  0
    3.5435   -4.3624    0.0000 C   0  0  0  0  0  0  0  0  0  0  0  0
    5.4560   -3.8500    0.0000 C   0  0  0  0  0  0  0  0  0  0  0  0
   -1.1187   -1.2376    0.0000 C   0  0  0  0  0  0  0  0  0  0  0  0
   -3.0311   -1.7500    0.0000 C   0  0  0  0  0  0  0  0  0  0  0  0
   -2.5187   -3.6624    0.0000 C   0  0  0  0  0  0  0  0  0  0  0  0
  2  1  1  0  0  0  0 
  1  3  1  0  0  0  0 
  2  4  1  0  0  0  0 
  3  5  1  0  0  0  0 
  4  6  1  0  0  0  0 
  7  5  1  0  0  0  0 
  5  8  1  0  0  0  0 
  5  9  1  0  0  0  0 
 10  6  1  0  0  0  0 
  6 11  1  0  0  0  0 
  6 12  1  0  0  0  0 
M  END
> <Name>
1,2-Ethanediamine, N,N'-bis(1,1-dimethylethyl)-

> <Source>
IndexNet2DMolFile

> <Tox>
-0.575

> <CAS>
4062-60-6

$$$$

  CDK

  8  8  0  0  0  0  0  0  0  0999 V2000
    1.2664    2.8367    0.0000 C   0  0  0  0  0  0  0  0  0  0  0  0
    1.5703    1.8742    0.0000 C   0  0  0  0  0  0  0  0  0  0  0  0
    1.0131    1.0638    0.0000 C   0  0  0  0  0  0  0  0  0  0  0  0
    2.5327    1.5703    0.0000 C   0  0  0  0  0  0  0  0  0  0  0  0
    0.0000    1.0638    0.0000 O   0  0  0  0  0  0  0  0  0  0  0  0
    1.5703    0.2533    0.0000 O   0  0  0  0  0  0  0  0  0  0  0  0
    2.5327    0.6079    0.0000 C   0  0  0  0  0  0  0  0  0  0  0  0
    3.3432    0.0000    0.0000 O   0  0  0  0  0  0  0  0  0  0  0  0
  1  2  1  0  0  0  0 
  2  3  1  0  0  0  0 
  4  2  1  0  0  0  0 
  3  5  2  0  0  0  0 
  3  6  1  0  0  0  0 
  7  4  1  0  0  0  0 
  6  7  1  0  0  0  0 
  7  8  2  0  0  0  0 
M  END
> <Name>
PYROTATARIC ANHYDRIDE

> <Source>
NIST2DMolFile

> <Tox>
-1.510

> <CAS>
4100-80-5

$$$$

  CDK

 12 11  0  0  0  0  0  0  0  0999 V2000
    0.0000    0.0000    0.0000 Br  0  0  0  0  0  0  0  0  0  0  0  0
   -1.8000    0.6600    0.0800 C   0  0  0  0  0  0  0  0  0  0  0  0
   -1.8000    2.1600   -0.2400 C   0  0  0  0  0  0  0  0  0  0  0  0
   -1.2000    2.9800    0.9000 C   0  0  0  0  0  0  0  0  0  0  0  0
   -1.4000    4.4800    0.7200 C   0  0  0  0  0  0  0  0  0  0  0  0
   -0.8200    5.3200    1.8600 C   0  0  0  0  0  0  0  0  0  0  0  0
   -1.2400    6.7800    1.8000 C   0  0  0  0  0  0  0  0  0  0  0  0
   -1.1000    7.5000    3.1400 C   0  0  0  0  0  0  0  0  0  0  0  0
   -2.1000    8.6400    3.3200 C   0  0  0  0  0  0  0  0  0  0  0  0
   -2.2600    9.0600    4.7800 C   0  0  0  0  0  0  0  0  0  0  0  0
   -3.6400    9.6600    5.0800 C   0  0  0  0  0  0  0  0  0  0  0  0
   -4.9600    8.2600    4.9600 Br  0  0  0  0  0  0  0  0  0  0  0  0
  1  2  1  0  0  0  0 
  2  3  1  0  0  0  0 
  3  4  1  0  0  0  0 
  4  5  1  0  0  0  0 
  5  6  1  0  0  0  0 
  6  7  1  0  0  0  0 
  7  8  1  0  0  0  0 
  8  9  1  0  0  0  0 
  9 10  1  0  0  0  0 
 10 11  1  0  0  0  0 
 11 12  1  0  0  0  0 
M  END
> <Name>
1,2-DIBROMODECANE

> <Source>
NIH3DMolFile

> <Tox>
-2.428

> <CAS>
4101-68-2

$$$$

  CDK

  6  5  0  0  0  0  0  0  0  0999 V2000
    2.1015    2.5780    1.8687 S   0  0  0  0  0  0  0  0  0  0  0  0
    1.9964    1.1787    3.0390 C   0  0  0  0  0  0  0  0  0  0  0  0
    3.8899    2.9043    1.8013 C   0  0  0  0  0  0  0  0  0  0  0  0
    0.5493    0.8400    3.2901 C   0  0  0  0  0  0  0  0  0  0  0  0
    4.6893    1.8751    1.0239 C   0  0  0  0  0  0  0  0  0  0  0  0
    6.1521    2.2562    0.9601 C   0  0  0  0  0  0  0  0  0  0  0  0
  1  2  1  0  0  0  0 
  1  3  1  0  0  0  0 
  2  4  1  0  0  0  0 
  3  5  1  0  0  0  0 
  5  6  1  0  0  0  0 
M  END
> <Name>
ETHYLPROPYLSULFIDE

> <Source>
NIST3DMolFile

> <Tox>
1.274

> <CAS>
4110-50-3

$$$$

  CDK

 13 12  0  0  0  0  0  0  0  0999 V2000
    3.8762    0.5757   -0.0072 Cl  0  0  0  0  0  0  0  0  0  0  0  0
    2.3481   -0.3355   -0.0026 C   0  0  0  0  0  0  0  0  0  0  0  0
    2.2592   -1.3367    1.4626 Cl  0  0  0  0  0  0  0  0  0  0  0  0
    2.2527   -1.3397   -1.4654 Cl  0  0  0  0  0  0  0  0  0  0  0  0
    1.1775    0.6283   -0.0012 C   0  0  0  0  0  0  0  0  0  0  0  0
   -0.0007   -0.0731    0.0020 O   0  0  0  0  0  0  0  0  0  0  0  0
    1.2868    1.8484   -0.0030 O   0  0  0  0  0  0  0  0  0  0  0  0
   -1.1787    0.6287    0.0034 C   0  0  0  0  0  0  0  0  0  0  0  0
   -1.2875    1.8488    0.0020 O   0  0  0  0  0  0  0  0  0  0  0  0
   -2.3497   -0.3349    0.0042 C   0  0  0  0  0  0  0  0  0  0  0  0
   -3.8574    0.6052    0.0027 Cl  0  0  0  0  0  0  0  0  0  0  0  0
   -2.2398   -1.3581    1.4528 Cl  0  0  0  0  0  0  0  0  0  0  0  0
   -2.2866   -1.3571   -1.4504 Cl  0  0  0  0  0  0  0  0  0  0  0  0
  1  2  1  0  0  0  0 
  3  2  1  0  0  0  0 
  4  2  1  0  0  0  0 
  2  5  1  0  0  0  0 
  6  5  1  0  0  0  0 
  7  5  2  0  0  0  0 
  6  8  1  0  0  0  0 
  9  8  2  0  0  0  0 
 10  8  1  0  0  0  0 
 11 10  1  0  0  0  0 
 12 10  1  0  0  0  0 
 13 10  1  0  0  0  0 
M  END
> <Name>
TRICHLOROACETIC ANHYDRIDE

> <Source>
Chemidplus3DMolFile

> <Tox>
-0.907

> <CAS>
4124-31-6

$$$$

  CDK

 17 17  0  0  0  0  0  0  0  0999 V2000
    0.9987    1.7478    0.0000 C   0  0  0  0  0  0  0  0  0  0  0  0
    1.4981    2.5967    0.0000 N   0  0  0  0  0  0  0  0  0  0  0  0
    1.4981    0.8489    0.0000 C   0  0  0  0  0  0  0  0  0  0  0  0
    0.0000    1.7478    0.0000 C   0  0  0  0  0  0  0  0  0  0  0  0
    2.4969    2.5967    0.0000 C   0  0  0  0  0  0  0  0  0  0  0  0
    2.9962    3.4457    0.0000 N   0  0  0  0  0  0  0  0  0  0  0  0
    2.9962    1.7478    0.0000 N   0  0  0  0  0  0  0  0  0  0  0  0
    3.9950    3.4457    0.0000 C   0  0  0  0  0  0  0  0  0  0  0  0
    3.9950    1.7478    0.0000 C   0  0  0  0  0  0  0  0  0  0  0  0
    4.4944    4.3445    0.0000 N   0  0  0  0  0  0  0  0  0  0  0  0
    4.4944    2.5967    0.0000 N   0  0  0  0  0  0  0  0  0  0  0  0
    4.4944    0.8489    0.0000 S   0  0  0  0  0  0  0  0  0  0  0  0
    5.4931    4.3445    0.0000 C   0  0  0  0  0  0  0  0  0  0  0  0
    5.4931    0.8489    0.0000 C   0  0  0  0  0  0  0  0  0  0  0  0
    5.9925    3.4457    0.0000 C   0  0  0  0  0  0  0  0  0  0  0  0
    5.9925    5.1935    0.0000 C   0  0  0  0  0  0  0  0  0  0  0  0
    5.9925    0.0000    0.0000 C   0  0  0  0  0  0  0  0  0  0  0  0
  1  2  1  0  0  0  0 
  1  3  1  0  0  0  0 
  1  4  1  0  0  0  0 
  2  5  1  0  0  0  0 
  6  5  2  0  0  0  0 
  5  7  1  0  0  0  0 
  8  6  1  0  0  0  0 
  7  9  2  0  0  0  0 
  8 10  1  0  0  0  0 
 11  8  2  0  0  0  0 
  9 11  1  0  0  0  0 
  9 12  1  0  0  0  0 
 10 13  1  0  0  0  0 
 12 14  1  0  0  0  0 
 13 15  1  0  0  0  0 
 13 16  1  0  0  0  0 
 14 17  1  0  0  0  0 
M  END
> <Name>
DIPROPETRYNE

> <Source>
NIST2DMolFile

> <Tox>
-5.796

> <CAS>
4147-51-7

$$$$

  CDK

 11 11  0  0  0  0  0  0  0  0999 V2000
    0.0000   -0.0000    0.0000 C   0  0  0  0  0  0  0  0  0  0  0  0
    1.3316   -0.0000    0.0000 C   0  0  0  0  0  0  0  0  0  0  0  0
    1.9934   -1.1561    0.0000 C   0  0  0  0  0  0  0  0  0  0  0  0
    3.3249   -1.1561    0.0000 C   0  0  0  0  0  0  0  0  0  0  0  0
    3.9867   -0.0000    0.0000 C   0  0  0  0  0  0  0  0  0  0  0  0
    3.9867   -2.3043    0.0000 C   0  0  0  0  0  0  0  0  0  0  0  0
    5.3183   -0.0000    0.0000 C   0  0  0  0  0  0  0  0  0  0  0  0
    5.3183   -2.3043    0.0000 C   0  0  0  0  0  0  0  0  0  0  0  0
    5.9801   -1.1561    0.0000 C   0  0  0  0  0  0  0  0  0  0  0  0
    7.3116   -1.1561    0.0000 O   0  0  0  0  0  0  0  0  0  0  0  0
    7.9734   -2.3043    0.0000 C   0  0  0  0  0  0  0  0  0  0  0  0
  1  2  1  0  0  0  0 
  2  3  2  0  0  0  0 
  3  4  1  0  0  0  0 
  4  5  2  0  0  0  0 
  4  6  1  0  0  0  0 
  5  7  1  0  0  0  0 
  8  6  2  0  0  0  0 
  7  9  2  0  0  0  0 
  9  8  1  0  0  0  0 
  9 10  1  0  0  0  0 
 10 11  1  0  0  0  0 
M  END
> <Name>
ANETHOLE (TRANS)

> <Source>
DSSTox2DMolFile

> <Tox>
-1.152

> <CAS>
4180-23-8

$$$$

  CDK

 10 11  0  0  0  0  0  0  0  0999 V2000
    4.3011    1.0003    0.0000 C   0  0  0  0  0  0  0  0  0  0  0  0
    3.2508    1.0003    0.0000 C   0  0  0  0  0  0  0  0  0  0  0  0
    2.6507    1.8005    0.0000 C   0  0  0  0  0  0  0  0  0  0  0  0
    2.7007    0.2001    0.0000 O   0  0  0  0  0  0  0  0  0  0  0  0
    1.7504    1.5004    0.0000 C   0  0  0  0  0  0  0  0  0  0  0  0
    1.7504    0.5001    0.0000 C   0  0  0  0  0  0  0  0  0  0  0  0
    0.9002    2.0005    0.0000 C   0  0  0  0  0  0  0  0  0  0  0  0
    0.9002    0.0000    0.0000 C   0  0  0  0  0  0  0  0  0  0  0  0
    0.0000    1.5004    0.0000 C   0  0  0  0  0  0  0  0  0  0  0  0
    0.0000    0.5001    0.0000 C   0  0  0  0  0  0  0  0  0  0  0  0
  1  2  1  0  0  0  0 
  3  2  2  0  0  0  0 
  2  4  1  0  0  0  0 
  5  3  1  0  0  0  0 
  4  6  1  0  0  0  0 
  6  5  2  0  0  0  0 
  7  5  1  0  0  0  0 
  6  8  1  0  0  0  0 
  9  7  2  0  0  0  0 
  8 10  2  0  0  0  0 
 10  9  1  0  0  0  0 
M  END
> <Name>
2-METHYLBENZOFURAN

> <Source>
NIST2DMolFile

> <Tox>
-0.312

> <CAS>
4265-25-2

$$$$

  CDK

 21 20  0  0  0  0  0  0  0  0999 V2000
    0.0000    0.1547    0.0000 C   0  0  0  0  0  0  0  0  0  0  0  0
    0.9282    0.6188    0.0000 C   0  0  0  0  0  0  0  0  0  0  0  0
    1.8049    0.1547    0.0000 C   0  0  0  0  0  0  0  0  0  0  0  0
    2.6816    0.6188    0.0000 C   0  0  0  0  0  0  0  0  0  0  0  0
    3.5582    0.1547    0.0000 C   0  0  0  0  0  0  0  0  0  0  0  0
    4.4865    0.5673    0.0000 C   0  0  0  0  0  0  0  0  0  0  0  0
    5.3631    0.1031    0.0000 C   0  0  0  0  0  0  0  0  0  0  0  0
    6.2398    0.5673    0.0000 C   0  0  0  0  0  0  0  0  0  0  0  0
    7.1165    0.1031    0.0000 C   0  0  0  0  0  0  0  0  0  0  0  0
    8.0447    0.5673    0.0000 C   0  0  0  0  0  0  0  0  0  0  0  0
    8.9214    0.1031    0.0000 C   0  0  0  0  0  0  0  0  0  0  0  0
    9.7980    0.5157    0.0000 C   0  0  0  0  0  0  0  0  0  0  0  0
   10.6747    0.0516    0.0000 C   0  0  0  0  0  0  0  0  0  0  0  0
   11.5514    0.5157    0.0000 C   0  0  0  0  0  0  0  0  0  0  0  0
   12.4280    0.0516    0.0000 C   0  0  0  0  0  0  0  0  0  0  0  0
   13.3563    0.5157    0.0000 C   0  0  0  0  0  0  0  0  0  0  0  0
   14.2329    0.0516    0.0000 C   0  0  0  0  0  0  0  0  0  0  0  0
   15.1096    0.4641    0.0000 C   0  0  0  0  0  0  0  0  0  0  0  0
   15.9863    0.0000    0.0000 C   0  0  0  0  0  0  0  0  0  0  0  0
   16.9145    0.4641    0.0000 C   0  0  0  0  0  0  0  0  0  0  0  0
   17.7912    0.0000    0.0000 Br  0  0  0  0  0  0  0  0  0  0  0  0
  1  2  1  0  0  0  0 
  2  3  1  0  0  0  0 
  3  4  1  0  0  0  0 
  4  5  1  0  0  0  0 
  5  6  1  0  0  0  0 
  6  7  1  0  0  0  0 
  7  8  1  0  0  0  0 
  8  9  1  0  0  0  0 
  9 10  1  0  0  0  0 
 10 11  1  0  0  0  0 
 11 12  1  0  0  0  0 
 12 13  1  0  0  0  0 
 13 14  1  0  0  0  0 
 14 15  1  0  0  0  0 
 15 16  1  0  0  0  0 
 16 17  1  0  0  0  0 
 17 18  1  0  0  0  0 
 18 19  1  0  0  0  0 
 19 20  1  0  0  0  0 
 20 21  1  0  0  0  0 
M  END
> <Name>
1-BROMOEICOSANE

> <Source>
NIST2DMolFile

> <Tox>
-6.083

> <CAS>
4276-49-7

$$$$

  CDK

  8  7  0  0  0  0  0  0  0  0999 V2000
    3.4834    0.4976    0.0000 C   0  0  0  0  0  0  0  0  0  0  0  0
    2.5877    0.0000    0.0000 C   0  0  0  0  0  0  0  0  0  0  0  0
    4.3294    0.0000    0.0000 C   0  0  0  0  0  0  0  0  0  0  0  0
    1.7417    0.4976    0.0000 C   0  0  0  0  0  0  0  0  0  0  0  0
    5.1754    0.4976    0.0000 C   0  0  0  0  0  0  0  0  0  0  0  0
    0.8957    0.0000    0.0000 C   0  0  0  0  0  0  0  0  0  0  0  0
    6.0711    0.0000    0.0000 I   0  0  0  0  0  0  0  0  0  0  0  0
    0.0000    0.4976    0.0000 C   0  0  0  0  0  0  0  0  0  0  0  0
  1  2  1  0  0  0  0 
  1  3  1  0  0  0  0 
  2  4  1  0  0  0  0 
  3  5  1  0  0  0  0 
  4  6  1  0  0  0  0 
  5  7  1  0  0  0  0 
  6  8  1  0  0  0  0 
M  END
> <Name>
1-IODOHEPTANE

> <Source>
NIST2DMolFile

> <Tox>
-0.351

> <CAS>
4282-40-0

$$$$

  CDK

 10  9  0  0  0  0  0  0  0  0999 V2000
   -6.1816   -0.5595   -0.0435 I   0  0  0  0  0  0  0  0  0  0  0  0
   -4.3945    0.6131    0.0182 C   0  0  0  0  0  0  0  0  0  0  0  0
   -3.1306   -0.2485    0.0365 C   0  0  0  0  0  0  0  0  0  0  0  0
   -1.8366    0.5735   -0.0057 C   0  0  0  0  0  0  0  0  0  0  0  0
   -0.6058   -0.3372    0.0018 C   0  0  0  0  0  0  0  0  0  0  0  0
    0.7199    0.4296   -0.0143 C   0  0  0  0  0  0  0  0  0  0  0  0
    1.9499   -0.4803    0.0186 C   0  0  0  0  0  0  0  0  0  0  0  0
    3.2436    0.3376    0.0129 C   0  0  0  0  0  0  0  0  0  0  0  0
    4.4745   -0.5687    0.0073 C   0  0  0  0  0  0  0  0  0  0  0  0
    5.7613    0.2402   -0.0320 C   0  0  0  0  0  0  0  0  0  0  0  0
  1  2  1  0  0  0  0 
  3  2  1  0  0  0  0 
  4  3  1  0  0  0  0 
  5  4  1  0  0  0  0 
  6  5  1  0  0  0  0 
  6  7  1  0  0  0  0 
  7  8  1  0  0  0  0 
  8  9  1  0  0  0  0 
  9 10  1  0  0  0  0 
M  END
> <Name>
IODONONANE

> <Source>
Chemidplus3DMolFile

> <Tox>
-1.564

> <CAS>
4282-42-2

$$$$

  CDK

 12 11  0  0  0  0  0  0  0  0999 V2000
   -7.4800   -0.5556    0.1071 I   0  0  0  0  0  0  0  0  0  0  0  0
   -5.6885    0.6189    0.0607 C   0  0  0  0  0  0  0  0  0  0  0  0
   -4.4583   -0.2829   -0.0346 C   0  0  0  0  0  0  0  0  0  0  0  0
   -3.1384    0.4955   -0.0648 C   0  0  0  0  0  0  0  0  0  0  0  0
   -1.8629   -0.3527   -0.0687 C   0  0  0  0  0  0  0  0  0  0  0  0
   -0.5785    0.4780   -0.0364 C   0  0  0  0  0  0  0  0  0  0  0  0
    0.6618   -0.4197   -0.0330 C   0  0  0  0  0  0  0  0  0  0  0  0
    1.9465    0.4112   -0.0379 C   0  0  0  0  0  0  0  0  0  0  0  0
    3.2217   -0.4365   -0.0022 C   0  0  0  0  0  0  0  0  0  0  0  0
    4.5409    0.3415    0.0176 C   0  0  0  0  0  0  0  0  0  0  0  0
    5.7781   -0.5564   -0.0102 C   0  0  0  0  0  0  0  0  0  0  0  0
    7.0575    0.2587    0.1023 C   0  0  0  0  0  0  0  0  0  0  0  0
  1  2  1  0  0  0  0 
  3  2  1  0  0  0  0 
  4  3  1  0  0  0  0 
  5  4  1  0  0  0  0 
  6  5  1  0  0  0  0 
  7  6  1  0  0  0  0 
  7  8  1  0  0  0  0 
  8  9  1  0  0  0  0 
  9 10  1  0  0  0  0 
 10 11  1  0  0  0  0 
 11 12  1  0  0  0  0 
M  END
> <Name>
1-IODOUNDECANE

> <Source>
Chemidplus3DMolFile

> <Tox>
-2.354

> <CAS>
4282-44-4

$$$$

  CDK

 12 12  0  0  0  0  0  0  0  0999 V2000
    5.7095    1.9816    1.7547 C   0  0  0  0  0  0  0  0  0  0  0  0
    7.0736    1.8885    2.4199 C   0  0  0  0  0  0  0  0  0  0  0  0
    4.6131    1.4655    2.6728 C   0  0  0  0  0  0  0  0  0  0  0  0
    8.2057    2.3591    1.5043 C   0  0  0  0  0  0  0  0  0  0  0  0
    3.2478    1.5628    2.0119 C   0  0  0  0  0  0  0  0  0  0  0  0
    8.0904    3.8582    1.2042 C   0  0  0  0  0  0  0  0  0  0  0  0
    9.5695    2.0220    2.1203 C   0  0  0  0  0  0  0  0  0  0  0  0
    2.1495    1.0499    2.9295 C   0  0  0  0  0  0  0  0  0  0  0  0
    9.4400    4.4694    0.8726 C   0  0  0  0  0  0  0  0  0  0  0  0
   10.1287    3.1761    2.9328 C   0  0  0  0  0  0  0  0  0  0  0  0
    0.7904    1.1449    2.2738 C   0  0  0  0  0  0  0  0  0  0  0  0
   10.3923    4.3967    2.0597 C   0  0  0  0  0  0  0  0  0  0  0  0
  1  2  1  0  0  0  0 
  1  3  1  0  0  0  0 
  2  4  1  0  0  0  0 
  3  5  1  0  0  0  0 
  4  6  1  0  0  0  0 
  7  4  1  0  0  0  0 
  5  8  1  0  0  0  0 
  6  9  1  0  0  0  0 
 10  7  1  0  0  0  0 
  8 11  1  0  0  0  0 
  9 12  1  0  0  0  0 
 12 10  1  0  0  0  0 
M  END
> <Name>
1-CYCLOHEXYLHEXANE

> <Source>
NIST3DMolFile

> <Tox>
-0.943

> <CAS>
4292-75-5

$$$$

  CDK

 21 22  0  0  0  0  0  0  0  0999 V2000
   -6.7083    1.0387    0.1343 O   0  0  0  0  0  0  0  0  0  0  0  0
   -6.0740   -0.0440    0.1378 N   0  0  0  0  0  0  0  0  0  0  0  0
   -6.6463   -1.1497    0.2947 O   0  0  0  0  0  0  0  0  0  0  0  0
   -4.6658   -0.0172   -0.0415 C   0  0  0  0  0  0  0  0  0  0  0  0
   -4.0078    1.2000   -0.2182 C   0  0  0  0  0  0  0  0  0  0  0  0
   -3.9402   -1.2084   -0.0401 C   0  0  0  0  0  0  0  0  0  0  0  0
   -2.6242    1.2260   -0.3934 C   0  0  0  0  0  0  0  0  0  0  0  0
   -2.5567   -1.1825   -0.2152 C   0  0  0  0  0  0  0  0  0  0  0  0
   -1.9055    0.0346   -0.3911 C   0  0  0  0  0  0  0  0  0  0  0  0
   -0.5113    0.0611   -0.5661 N   0  0  0  0  0  0  0  0  0  0  0  0
    0.0587    0.1588    0.5459 N   0  0  0  0  0  0  0  0  0  0  0  0
    1.4460    0.1849    0.3712 C   0  0  0  0  0  0  0  0  0  0  0  0
    2.1719   -1.0062    0.3726 C   0  0  0  0  0  0  0  0  0  0  0  0
    2.1037    1.4023    0.1957 C   0  0  0  0  0  0  0  0  0  0  0  0
    3.5557   -0.9798    0.1985 C   0  0  0  0  0  0  0  0  0  0  0  0
    3.4874    1.4286    0.0215 C   0  0  0  0  0  0  0  0  0  0  0  0
    4.2134    0.2376    0.0230 C   0  0  0  0  0  0  0  0  0  0  0  0
    4.3086   -2.2704    0.2058 C   0  0  0  0  0  0  0  0  0  0  0  0
    5.6138    0.2833   -0.1534 N   0  0  0  0  0  0  0  0  0  0  0  0
    6.4461    1.0117    0.7819 C   0  0  0  0  0  0  0  0  0  0  0  0
    6.2348   -0.4093   -1.2638 C   0  0  0  0  0  0  0  0  0  0  0  0
  1  2  1  0  0  0  0 
  3  2  2  0  0  0  0 
  2  4  1  0  0  0  0 
  4  5  2  0  0  0  0 
  4  6  1  0  0  0  0 
  7  5  1  0  0  0  0 
  8  6  2  0  0  0  0 
  9  7  2  0  0  0  0 
  9  8  1  0  0  0  0 
 10  9  1  0  0  0  0 
 11 10  2  0  0  0  0 
 11 12  1  0  0  0  0 
 13 12  2  0  0  0  0 
 12 14  1  0  0  0  0 
 15 13  1  0  0  0  0 
 16 14  2  0  0  0  0 
 17 15  2  0  0  0  0 
 15 18  1  0  0  0  0 
 17 16  1  0  0  0  0 
 19 17  1  0  0  0  0 
 19 20  1  0  0  0  0 
 19 21  1  0  0  0  0 
M  CHG  1   1  -1
M  CHG  1   2   1
M  END
> <Name>
DIS. A. 16

> <Source>
Chemidplus3DMolFile

> <Tox>
-8.000

> <CAS>
4313-13-7

$$$$

  CDK

 15 16  0  0  0  0  0  0  0  0999 V2000
    2.9331    0.8451    0.0000 N   0  0  0  0  0  0  0  0  0  0  0  0
    3.4302    1.7399    0.0000 N   0  0  0  0  0  0  0  0  0  0  0  0
    1.9885    0.8451    0.0000 C   0  0  0  0  0  0  0  0  0  0  0  0
    4.4742    1.7399    0.0000 C   0  0  0  0  0  0  0  0  0  0  0  0
    1.4914    1.7399    0.0000 C   0  0  0  0  0  0  0  0  0  0  0  0
    1.4914    0.0000    0.0000 C   0  0  0  0  0  0  0  0  0  0  0  0
    4.9713    2.5851    0.0000 C   0  0  0  0  0  0  0  0  0  0  0  0
    4.9713    0.8451    0.0000 C   0  0  0  0  0  0  0  0  0  0  0  0
    0.4971    1.7399    0.0000 C   0  0  0  0  0  0  0  0  0  0  0  0
    0.4971    0.0000    0.0000 C   0  0  0  0  0  0  0  0  0  0  0  0
    5.9655    2.5851    0.0000 C   0  0  0  0  0  0  0  0  0  0  0  0
    5.9655    0.8451    0.0000 C   0  0  0  0  0  0  0  0  0  0  0  0
    0.0000    0.8451    0.0000 C   0  0  0  0  0  0  0  0  0  0  0  0
    6.4627    1.7399    0.0000 C   0  0  0  0  0  0  0  0  0  0  0  0
    7.4569    1.7399    0.0000 Cl  0  0  0  0  0  0  0  0  0  0  0  0
  1  2  2  0  0  0  0 
  1  3  1  0  0  0  0 
  2  4  1  0  0  0  0 
  5  3  2  0  0  0  0 
  3  6  1  0  0  0  0 
  4  7  2  0  0  0  0 
  8  4  1  0  0  0  0 
  9  5  1  0  0  0  0 
  6 10  2  0  0  0  0 
  7 11  1  0  0  0  0 
 12  8  2  0  0  0  0 
 13  9  2  0  0  0  0 
 10 13  1  0  0  0  0 
 11 14  2  0  0  0  0 
 14 12  1  0  0  0  0 
 14 15  1  0  0  0  0 
M  END
> <Name>
4-CHLOROAZOBENZENE

> <Source>
NIST2DMolFile

> <Tox>
-5.699

> <CAS>
4340-77-6

$$$$

  CDK

 20 19  0  0  0  0  0  0  0  0999 V2000
    0.0000    0.0000    0.0000 C   0  0  0  0  0  0  0  0  0  0  0  0
    0.8753    0.4634    0.0000 C   0  0  0  0  0  0  0  0  0  0  0  0
    1.7505    0.0000    0.0000 C   0  0  0  0  0  0  0  0  0  0  0  0
    2.6258    0.4634    0.0000 C   0  0  0  0  0  0  0  0  0  0  0  0
    3.5526    0.0000    0.0000 C   0  0  0  0  0  0  0  0  0  0  0  0
    4.4278    0.4634    0.0000 C   0  0  0  0  0  0  0  0  0  0  0  0
    5.3031    0.0000    0.0000 C   0  0  0  0  0  0  0  0  0  0  0  0
    6.2299    0.4634    0.0000 C   0  0  0  0  0  0  0  0  0  0  0  0
    7.1051    0.0000    0.0000 C   0  0  0  0  0  0  0  0  0  0  0  0
    7.9804    0.4634    0.0000 C   0  0  0  0  0  0  0  0  0  0  0  0
    8.8557    0.0000    0.0000 C   0  0  0  0  0  0  0  0  0  0  0  0
    9.7309    0.4634    0.0000 C   0  0  0  0  0  0  0  0  0  0  0  0
   10.6062    0.0000    0.0000 C   0  0  0  0  0  0  0  0  0  0  0  0
   11.5330    0.4634    0.0000 C   0  0  0  0  0  0  0  0  0  0  0  0
   12.4082    0.0000    0.0000 C   0  0  0  0  0  0  0  0  0  0  0  0
   13.2835    0.4634    0.0000 C   0  0  0  0  0  0  0  0  0  0  0  0
   14.2103    0.0000    0.0000 C   0  0  0  0  0  0  0  0  0  0  0  0
   15.0855    0.4634    0.0000 C   0  0  0  0  0  0  0  0  0  0  0  0
   15.9608    0.0000    0.0000 C   0  0  0  0  0  0  0  0  0  0  0  0
   16.8361    0.4634    0.0000 Br  0  0  0  0  0  0  0  0  0  0  0  0
  1  2  1  0  0  0  0 
  2  3  1  0  0  0  0 
  3  4  1  0  0  0  0 
  4  5  1  0  0  0  0 
  5  6  1  0  0  0  0 
  6  7  1  0  0  0  0 
  8  7  1  0  0  0  0 
  9  8  1  0  0  0  0 
 10  9  1  0  0  0  0 
 10 11  1  0  0  0  0 
 11 12  1  0  0  0  0 
 13 12  1  0  0  0  0 
 14 13  1  0  0  0  0 
 15 14  1  0  0  0  0 
 15 16  1  0  0  0  0 
 16 17  1  0  0  0  0 
 18 17  1  0  0  0  0 
 19 18  1  0  0  0  0 
 20 19  1  0  0  0  0 
M  END
> <Name>
1-BROMONONADECANE

> <Source>
NIST2DMolFile

> <Tox>
-5.652

> <CAS>
4434-66-6

$$$$

  CDK

  9  9  0  0  0  0  0  0  0  0999 V2000
   -2.4588   -0.3230   -0.4364 C   0  0  0  0  0  0  0  0  0  0  0  0
   -1.4305    0.5243    0.3104 C   0  0  0  0  0  0  0  0  0  0  0  0
   -3.7344    0.0415    0.0406 O   0  0  0  0  0  0  0  0  0  0  0  0
   -0.0086    0.2338   -0.1696 C   0  0  0  0  0  0  0  0  0  0  0  0
    0.4406   -1.1799    0.2189 C   0  0  0  0  0  0  0  0  0  0  0  0
    0.9586    1.2726    0.3945 C   0  0  0  0  0  0  0  0  0  0  0  0
    1.9497   -1.2904    0.3959 C   0  0  0  0  0  0  0  0  0  0  0  0
    2.3530    1.1172   -0.1989 C   0  0  0  0  0  0  0  0  0  0  0  0
    2.6930   -0.3336   -0.5181 C   0  0  0  0  0  0  0  0  0  0  0  0
  1  2  1  0  0  0  0 
  1  3  1  0  0  0  0 
  2  4  1  0  0  0  0 
  4  5  1  0  0  0  0 
  4  6  1  0  0  0  0 
  5  7  1  0  0  0  0 
  8  6  1  0  0  0  0 
  7  9  1  0  0  0  0 
  9  8  1  0  0  0  0 
M  END
> <Name>
CYCLOHEXANEETHANOL

> <Source>
DougDB3DMolFile

> <Tox>
-0.780

> <CAS>
4442-79-9

$$$$

  CDK

  8  8  0  0  0  0  0  0  0  0999 V2000
    3.2924   -1.1881    0.0000 O   0  0  0  0  0  0  0  0  0  0  0  0
    4.0005   -2.3283    0.0000 C   0  0  0  0  0  0  0  0  0  0  0  0
    1.9762   -1.1881    0.0000 C   0  0  0  0  0  0  0  0  0  0  0  0
    3.2924   -3.4684    0.0000 C   0  0  0  0  0  0  0  0  0  0  0  0
    1.2841   -2.3283    0.0000 C   0  0  0  0  0  0  0  0  0  0  0  0
    1.3322   -0.0320    0.0000 O   0  0  0  0  0  0  0  0  0  0  0  0
    1.9762   -3.4684    0.0000 C   0  0  0  0  0  0  0  0  0  0  0  0
    0.0000   -0.0000    0.0000 C   0  0  0  0  0  0  0  0  0  0  0  0
  1  2  1  0  0  0  0 
  1  3  1  0  0  0  0 
  2  4  2  0  0  0  0 
  5  3  1  0  0  0  0 
  3  6  1  0  0  0  0 
  4  7  1  0  0  0  0 
  7  5  1  0  0  0  0 
  6  8  1  0  0  0  0 
M  END
> <Name>
2-Methoxy-3,4-dihydro-2H-pyran

> <Source>
DSSTox2DMolFile

> <Tox>
1.037

> <CAS>
4454-05-1

$$$$

  CDK

 20 22  0  0  0  0  0  0  0  0999 V2000
    0.5217    1.8794    0.1532 O   0  0  0  0  0  0  0  0  0  0  0  0
   -0.1608    0.8648    0.0874 C   0  0  0  0  0  0  0  0  0  0  0  0
    0.4337   -0.4867    0.0456 C   0  0  0  0  0  0  0  0  0  0  0  0
   -1.6310    1.0031    0.0466 C   0  0  0  0  0  0  0  0  0  0  0  0
   -0.3822   -1.6174   -0.0318 C   0  0  0  0  0  0  0  0  0  0  0  0
    1.8258   -0.6313    0.0845 C   0  0  0  0  0  0  0  0  0  0  0  0
   -2.4469   -0.1276   -0.0306 C   0  0  0  0  0  0  0  0  0  0  0  0
   -2.2072    2.2785    0.0859 C   0  0  0  0  0  0  0  0  0  0  0  0
   -1.8522   -1.4792   -0.0721 C   0  0  0  0  0  0  0  0  0  0  0  0
    0.1941   -2.8928   -0.0709 C   0  0  0  0  0  0  0  0  0  0  0  0
    2.7154    0.4648    0.1639 N   0  0  0  0  0  0  0  0  0  0  0  0
    2.3957   -1.9043    0.0457 C   0  0  0  0  0  0  0  0  0  0  0  0
   -3.8389    0.0171   -0.0688 C   0  0  0  0  0  0  0  0  0  0  0  0
   -3.5948    2.4182    0.0481 C   0  0  0  0  0  0  0  0  0  0  0  0
   -2.5679   -2.4710   -0.1375 O   0  0  0  0  0  0  0  0  0  0  0  0
    1.5817   -3.0325   -0.0318 C   0  0  0  0  0  0  0  0  0  0  0  0
    4.1344    0.3074    0.2041 C   0  0  0  0  0  0  0  0  0  0  0  0
   -4.4089    1.2899   -0.0293 C   0  0  0  0  0  0  0  0  0  0  0  0
    4.8049    1.6655    0.3233 C   0  0  0  0  0  0  0  0  0  0  0  0
    4.4832    2.4540   -0.8156 O   0  0  0  0  0  0  0  0  0  0  0  0
  1  2  2  0  0  0  0 
  3  2  1  0  0  0  0 
  4  2  1  0  0  0  0 
  3  5  2  0  0  0  0 
  3  6  1  0  0  0  0 
  4  7  1  0  0  0  0 
  4  8  2  0  0  0  0 
  5  9  1  0  0  0  0 
  5 10  1  0  0  0  0 
 11  6  1  0  0  0  0 
  6 12  2  0  0  0  0 
  7  9  1  0  0  0  0 
  7 13  2  0  0  0  0 
  8 14  1  0  0  0  0 
 15  9  2  0  0  0  0 
 10 16  2  0  0  0  0 
 11 17  1  0  0  0  0 
 12 16  1  0  0  0  0 
 13 18  1  0  0  0  0 
 14 18  2  0  0  0  0 
 17 19  1  0  0  0  0 
 20 19  1  0  0  0  0 
M  END
> <Name>
C.I. DISPERSE RED 3

> <Source>
Chemidplus3DMolFile

> <Tox>
-11.000

> <CAS>
4465-58-1

$$$$

  CDK

  9  8  0  0  0  0  0  0  0  0999 V2000
    0.0000    0.0000    0.0000 C   0  0  0  0  0  0  0  0  0  0  0  0
    0.8700    0.4606    0.0000 C   0  0  0  0  0  0  0  0  0  0  0  0
    1.7401    0.0000    0.0000 C   0  0  0  0  0  0  0  0  0  0  0  0
    0.8700    1.4842    0.0000 C   0  0  0  0  0  0  0  0  0  0  0  0
    2.6613    0.4606    0.0000 C   0  0  0  0  0  0  0  0  0  0  0  0
    3.4802    0.0000    0.0000 C   0  0  0  0  0  0  0  0  0  0  0  0
    4.3502    0.4606    0.0000 C   0  0  0  0  0  0  0  0  0  0  0  0
    5.2715    0.0000    0.0000 C   0  0  0  0  0  0  0  0  0  0  0  0
    4.3502    1.4842    0.0000 O   0  0  0  0  0  0  0  0  0  0  0  0
  1  2  1  0  0  0  0 
  2  3  2  0  0  0  0 
  2  4  1  0  0  0  0 
  3  5  1  0  0  0  0 
  5  6  1  0  0  0  0 
  6  7  1  0  0  0  0 
  7  8  1  0  0  0  0 
  7  9  1  0  0  0  0 
M  END
> <Name>
6-METHYL-5-HEPTEN-2-OL

> <Source>
NIST2DMolFile

> <Tox>
-0.565

> <CAS>
4630-06-2

$$$$

  CDK

  8  7  0  0  0  0  0  0  0  0999 V2000
    0.5013    1.7545    0.0000 C   0  0  0  0  0  0  0  0  0  0  0  0
    1.5540    1.7545    0.0000 C   0  0  0  0  0  0  0  0  0  0  0  0
    0.0000    2.5565    0.0000 O   0  0  0  0  0  0  0  0  0  0  0  0
    0.0000    0.8522    0.0000 Cl  0  0  0  0  0  0  0  0  0  0  0  0
    2.0553    2.5565    0.0000 O   0  0  0  0  0  0  0  0  0  0  0  0
    2.0553    0.8522    0.0000 O   0  0  0  0  0  0  0  0  0  0  0  0
    3.0578    0.8522    0.0000 C   0  0  0  0  0  0  0  0  0  0  0  0
    3.5591    0.0000    0.0000 C   0  0  0  0  0  0  0  0  0  0  0  0
  1  2  1  0  0  0  0 
  1  3  2  0  0  0  0 
  1  4  1  0  0  0  0 
  2  5  2  0  0  0  0 
  2  6  1  0  0  0  0 
  6  7  1  0  0  0  0 
  7  8  1  0  0  0  0 
M  END
> <Name>
ETHYL CHLOROGLYOXYLATE

> <Source>
NIST2DMolFile

> <Tox>
0.881

> <CAS>
4755-77-5

$$$$

  CDK

  5  4  0  0  0  0  0  0  0  0999 V2000
    2.5797    0.4961    0.0000 C   0  0  0  0  0  0  0  0  0  0  0  0
    1.7364    0.0000    0.0000 C   0  0  0  0  0  0  0  0  0  0  0  0
    3.4727    0.0000    0.0000 Br  0  0  0  0  0  0  0  0  0  0  0  0
    0.8930    0.4961    0.0000 C   0  0  0  0  0  0  0  0  0  0  0  0
    0.0000    0.0000    0.0000 C   0  0  0  0  0  0  0  0  0  0  0  0
  1  2  1  0  0  0  0 
  1  3  1  0  0  0  0 
  2  4  2  0  0  0  0 
  4  5  1  0  0  0  0 
M  END
> <Name>
2-BROMO-2-BUTENE

> <Source>
NIST2DMolFile

> <Tox>
1.905

> <CAS>
4784-77-4

$$$$

  CDK

 18 20  0  0  0  0  0  0  0  0999 V2000
   -0.7239   -0.5964    1.2460 C   0  0  0  0  0  0  0  0  0  0  0  0
   -1.1469    0.6855    1.1063 C   0  0  0  0  0  0  0  0  0  0  0  0
   -0.3088   -1.0907   -0.1310 C   0  0  0  0  0  0  0  0  0  0  0  0
   -0.6292   -1.5164    2.5956 Cl  0  0  0  0  0  0  0  0  0  0  0  0
   -1.0130    1.0496   -0.3641 C   0  0  0  0  0  0  0  0  0  0  0  0
   -1.6975    1.7251    2.2426 Cl  0  0  0  0  0  0  0  0  0  0  0  0
    0.9868   -0.3378   -0.5477 C   0  0  0  0  0  0  0  0  0  0  0  0
   -1.3624   -0.3334   -1.0053 C   0  0  0  0  0  0  0  0  0  0  0  0
   -0.2488   -2.7998   -0.3028 Cl  0  0  0  0  0  0  0  0  0  0  0  0
    0.5005    1.1387   -0.7075 C   0  0  0  0  0  0  0  0  0  0  0  0
   -1.9518    2.3990   -0.8682 Cl  0  0  0  0  0  0  0  0  0  0  0  0
    2.1134   -0.3195    0.4797 C   0  0  0  0  0  0  0  0  0  0  0  0
   -1.0700   -0.4251   -2.7240 Cl  0  0  0  0  0  0  0  0  0  0  0  0
   -3.0057   -0.8449   -0.7274 Cl  0  0  0  0  0  0  0  0  0  0  0  0
    1.3509    1.9940    0.2254 C   0  0  0  0  0  0  0  0  0  0  0  0
    2.5506    1.1375    0.6175 C   0  0  0  0  0  0  0  0  0  0  0  0
    3.4525   -1.3501   -0.0488 Cl  0  0  0  0  0  0  0  0  0  0  0  0
    3.8938    1.4969   -0.4983 Cl  0  0  0  0  0  0  0  0  0  0  0  0
  1  2  2  0  0  0  0 
  1  3  1  0  0  0  0 
  1  4  1  0  0  0  0 
  2  5  1  0  0  0  0 
  2  6  1  0  0  0  0 
  7  3  1  0  0  0  0 
  3  8  1  0  0  0  0 
  3  9  1  0  0  0  0 
  5 10  1  0  0  0  0 
  5  8  1  0  0  0  0 
  5 11  1  0  0  0  0 
 10  7  1  0  0  0  0 
  7 12  1  0  0  0  0 
  8 13  1  0  0  0  0 
  8 14  1  0  0  0  0 
 10 15  1  0  0  0  0 
 16 12  1  0  0  0  0 
 12 17  1  0  0  0  0 
 15 16  1  0  0  0  0 
 16 18  1  0  0  0  0 
M  END
> <Name>
ALPHA-CHLORDANE

> <Source>
DougDB3DMolFile

> <Tox>
-4.444

> <CAS>
5103-71-9

$$$$

  CDK

 19 21  0  0  0  0  0  0  0  0999 V2000
    0.7454    0.6921    0.0000 C   0  0  0  0  0  0  0  0  0  0  0  0
    2.0233    1.1181    0.0000 C   0  0  0  0  0  0  0  0  0  0  0  0
    0.0000    0.2130    0.0000 Cl  0  0  0  0  0  0  0  0  0  0  0  0
    1.0649    1.1181    0.0000 C   0  0  0  0  0  0  0  0  0  0  0  0
    2.1297    2.6621    0.0000 C   0  0  0  0  0  0  0  0  0  0  0  0
    3.0349    0.5857    0.0000 C   0  0  0  0  0  0  0  0  0  0  0  0
    1.4909    0.2130    0.0000 Cl  0  0  0  0  0  0  0  0  0  0  0  0
    2.2895    1.5973    0.0000 C   0  0  0  0  0  0  0  0  0  0  0  0
    0.3727    1.5973    0.0000 Cl  0  0  0  0  0  0  0  0  0  0  0  0
    2.6089    3.5067    0.0000 Cl  0  0  0  0  0  0  0  0  0  0  0  0
    1.4909    3.4027    0.0000 Cl  0  0  0  0  0  0  0  0  0  0  0  0
    3.3011    1.0649    0.0000 C   0  0  0  0  0  0  0  0  0  0  0  0
    4.0681    0.6303    0.0000 C   0  0  0  0  0  0  0  0  0  0  0  0
    2.7687    2.7084    0.0000 Cl  0  0  0  0  0  0  0  0  0  0  0  0
    4.4911    1.1307    0.0000 C   0  0  0  0  0  0  0  0  0  0  0  0
    4.6854    0.0000    0.0000 C   0  0  0  0  0  0  0  0  0  0  0  0
    3.4889    0.0267    0.0000 Cl  0  0  0  0  0  0  0  0  0  0  0  0
    5.0581    1.5973    0.0000 Cl  0  0  0  0  0  0  0  0  0  0  0  0
    5.5153    0.0518    0.0000 Cl  0  0  0  0  0  0  0  0  0  0  0  0
  2  1  1  0  0  0  0 
  1  3  1  0  0  0  0 
  1  4  2  0  0  0  0 
  2  5  1  0  0  0  0 
  6  2  1  0  0  0  0 
  2  7  1  0  0  0  0 
  8  4  1  0  0  0  0 
  4  9  1  0  0  0  0 
  8  5  1  0  0  0  0 
  5 10  1  0  0  0  0 
  5 11  1  0  0  0  0 
 12  6  1  0  0  0  0 
  6 13  1  1  0  0  0 
  8 12  1  0  0  0  0 
  8 14  1  0  0  0  0 
 12 15  1  1  0  0  0 
 13 16  1  0  0  0  0 
 13 17  1  0  0  0  0 
 15 16  1  0  0  0  0 
 15 18  1  0  0  0  0 
 16 19  1  0  0  0  0 
M  END
> <Name>
CIS-NONACHLOR

> <Source>
NIST2DMolFile

> <Tox>
-6.046

> <CAS>
5103-73-1

$$$$

  CDK

 18 20  0  0  0  0  0  0  0  0999 V2000
   -0.1899   -0.2130    1.2985 C   0  0  0  0  0  0  0  0  0  0  0  0
   -0.6199   -1.2740    0.5692 C   0  0  0  0  0  0  0  0  0  0  0  0
   -0.3622    1.0288    0.4380 C   0  0  0  0  0  0  0  0  0  0  0  0
    0.4260   -0.1749    2.8128 Cl  0  0  0  0  0  0  0  0  0  0  0  0
   -1.0756   -0.7412   -0.7803 C   0  0  0  0  0  0  0  0  0  0  0  0
   -0.6616   -2.8586    0.9687 Cl  0  0  0  0  0  0  0  0  0  0  0  0
    0.6702    0.9622   -0.7236 C   0  0  0  0  0  0  0  0  0  0  0  0
   -1.6672    0.6338   -0.3287 C   0  0  0  0  0  0  0  0  0  0  0  0
   -0.3921    2.5146    1.3018 Cl  0  0  0  0  0  0  0  0  0  0  0  0
    0.1804   -0.2600   -1.5622 C   0  0  0  0  0  0  0  0  0  0  0  0
   -2.1200   -1.7850   -1.6610 Cl  0  0  0  0  0  0  0  0  0  0  0  0
    2.1114    0.6808   -0.3185 C   0  0  0  0  0  0  0  0  0  0  0  0
   -2.0811    1.7062   -1.6438 Cl  0  0  0  0  0  0  0  0  0  0  0  0
   -3.0716    0.4972    0.6941 Cl  0  0  0  0  0  0  0  0  0  0  0  0
    1.3341   -1.2522   -1.6407 C   0  0  0  0  0  0  0  0  0  0  0  0
    2.5754   -0.5256   -1.1316 C   0  0  0  0  0  0  0  0  0  0  0  0
    3.1292    2.0883   -0.7071 Cl  0  0  0  0  0  0  0  0  0  0  0  0
    3.5275   -1.6191   -0.0993 Cl  0  0  0  0  0  0  0  0  0  0  0  0
  1  2  2  0  0  0  0 
  1  3  1  0  0  0  0 
  1  4  1  0  0  0  0 
  2  5  1  0  0  0  0 
  2  6  1  0  0  0  0 
  7  3  1  0  0  0  0 
  3  8  1  0  0  0  0 
  3  9  1  0  0  0  0 
  5 10  1  0  0  0  0 
  5  8  1  0  0  0  0 
  5 11  1  0  0  0  0 
 10  7  1  0  0  0  0 
  7 12  1  0  0  0  0 
  8 13  1  0  0  0  0 
  8 14  1  0  0  0  0 
 10 15  1  0  0  0  0 
 16 12  1  0  0  0  0 
 17 12  1  0  0  0  0 
 15 16  1  0  0  0  0 
 18 16  1  0  0  0  0 
M  END
> <Name>
CHLORDANE (TRANS)

> <Source>
DougDB3DMolFile

> <Tox>
-4.298

> <CAS>
5103-74-2

$$$$

  CDK

  6  5  0  0  0  0  0  0  0  0999 V2000
    0.7785    2.9978    0.7197 C   0  0  0  0  0  0  0  0  0  0  0  0
    2.0026    2.4373    1.3305 C   0  0  0  0  0  0  0  0  0  0  0  0
    2.1324    2.2320    2.6466 C   0  0  0  0  0  0  0  0  0  0  0  0
    3.3463    1.6794    3.2237 C   0  0  0  0  0  0  0  0  0  0  0  0
    3.4784    1.4792    4.5402 C   0  0  0  0  0  0  0  0  0  0  0  0
    4.7032    0.9198    5.1506 C   0  0  0  0  0  0  0  0  0  0  0  0
  1  2  1  0  0  0  0 
  2  3  2  0  0  0  0 
  3  4  1  0  0  0  0 
  4  5  2  0  0  0  0 
  5  6  1  0  0  0  0 
M  END
> <Name>
2,4-HEXADIENE (TRANS,TRANS)

> <Source>
NIST3DMolFile

> <Tox>
1.944

> <CAS>
5194-51-4

$$$$

  CDK

 17 20  0  0  0  0  0  0  0  0999 V2000
   -3.7024   -1.5400   -0.0004 O   0  0  0  0  0  0  0  0  0  0  0  0
   -2.7668   -0.5450    0.0001 C   0  0  0  0  0  0  0  0  0  0  0  0
   -1.3940   -0.8323    0.0001 C   0  0  0  0  0  0  0  0  0  0  0  0
   -3.2150    0.7748    0.0001 C   0  0  0  0  0  0  0  0  0  0  0  0
   -0.4637    0.2331    0.0000 C   0  0  0  0  0  0  0  0  0  0  0  0
   -0.9228   -2.1521    0.0001 C   0  0  0  0  0  0  0  0  0  0  0  0
   -2.2999    1.8261    0.0001 C   0  0  0  0  0  0  0  0  0  0  0  0
    0.9266   -0.0406    0.0000 C   0  0  0  0  0  0  0  0  0  0  0  0
   -0.9207    1.5717    0.0000 C   0  0  0  0  0  0  0  0  0  0  0  0
    0.4472   -2.4218    0.0001 C   0  0  0  0  0  0  0  0  0  0  0  0
    1.3835   -1.3792    0.0000 C   0  0  0  0  0  0  0  0  0  0  0  0
    1.8568    1.0248    0.0000 C   0  0  0  0  0  0  0  0  0  0  0  0
    0.0156    2.6143    0.0000 C   0  0  0  0  0  0  0  0  0  0  0  0
    2.7627   -1.6336    0.0000 C   0  0  0  0  0  0  0  0  0  0  0  0
    1.3856    2.3446    0.0000 C   0  0  0  0  0  0  0  0  0  0  0  0
    3.2295    0.7375   -0.0001 C   0  0  0  0  0  0  0  0  0  0  0  0
    3.6779   -0.5823   -0.0001 C   0  0  0  0  0  0  0  0  0  0  0  0
  1  2  1  0  0  0  0 
  3  2  2  0  0  0  0 
  2  4  1  0  0  0  0 
  5  3  1  0  0  0  0 
  3  6  1  0  0  0  0 
  7  4  2  0  0  0  0 
  5  8  1  0  0  0  0 
  5  9  2  0  0  0  0 
  6 10  2  0  0  0  0 
  9  7  1  0  0  0  0 
  8 11  1  0  0  0  0 
  8 12  2  0  0  0  0 
  9 13  1  0  0  0  0 
 11 10  1  0  0  0  0 
 11 14  2  0  0  0  0 
 12 15  1  0  0  0  0 
 12 16  1  0  0  0  0 
 13 15  2  0  0  0  0 
 14 17  1  0  0  0  0 
 16 17  2  0  0  0  0 
M  END
> <Name>
1-Hydroxypyrene

> <Source>
Chemidplus3DMolFile

> <Tox>
-8.316

> <CAS>
5315-79-7

$$$$

  CDK

 11 11  0  0  0  0  0  0  0  0999 V2000
    3.0034    0.8654    0.0000 C   0  0  0  0  0  0  0  0  0  0  0  0
    2.0362    0.8654    0.0000 C   0  0  0  0  0  0  0  0  0  0  0  0
    3.5125    1.7308    0.0000 C   0  0  0  0  0  0  0  0  0  0  0  0
    1.5272    1.7308    0.0000 C   0  0  0  0  0  0  0  0  0  0  0  0
    3.0034    2.5962    0.0000 C   0  0  0  0  0  0  0  0  0  0  0  0
    4.5306    1.7308    0.0000 C   0  0  0  0  0  0  0  0  0  0  0  0
    2.0362    2.5962    0.0000 C   0  0  0  0  0  0  0  0  0  0  0  0
    0.4582    1.7308    0.0000 C   0  0  0  0  0  0  0  0  0  0  0  0
    0.0000    2.5962    0.0000 O   0  0  0  0  0  0  0  0  0  0  0  0
    0.0000    0.8654    0.0000 C   0  0  0  0  0  0  0  0  0  0  0  0
    0.5091    0.0000    0.0000 C   0  0  0  0  0  0  0  0  0  0  0  0
  2  1  2  0  0  0  0 
  1  3  1  0  0  0  0 
  4  2  1  0  0  0  0 
  3  5  2  0  0  0  0 
  3  6  1  0  0  0  0 
  7  4  2  0  0  0  0 
  4  8  1  0  0  0  0 
  5  7  1  0  0  0  0 
  8  9  2  0  0  0  0 
  8 10  1  0  0  0  0 
 10 11  1  0  0  0  0 
M  END
> <Name>
1-(4-METHYLPHENYL)-1-PROPANONE

> <Source>
NIST2DMolFile

> <Tox>
-1.028

> <CAS>
5337-93-9

$$$$

  CDK

  6  5  0  0  0  0  0  0  0  0999 V2000
    0.0000    0.0000    0.0000 C   0  0  0  0  0  0  0  0  0  0  0  0
    0.5012    0.8520    0.0000 C   0  0  0  0  0  0  0  0  0  0  0  0
    0.0000    1.7542    0.0000 O   0  0  0  0  0  0  0  0  0  0  0  0
    1.5036    0.8520    0.0000 C   0  0  0  0  0  0  0  0  0  0  0  0
    2.0048    1.7041    0.0000 O   0  0  0  0  0  0  0  0  0  0  0  0
    2.0048    0.0000    0.0000 C   0  0  0  0  0  0  0  0  0  0  0  0
  1  2  1  0  0  0  0 
  2  3  1  1  0  0  0 
  2  4  1  0  0  0  0 
  4  5  1  0  0  0  0 
  4  6  1  1  0  0  0 
M  END
> <Name>
2,3-BUTANEDIOL (MESO)

> <Source>
NIST2DMolFile

> <Tox>
-0.420

> <CAS>
5341-95-7

$$$$

  CDK

  6  5  0  0  0  0  0  0  0  0999 V2000
    0.5056    0.8595    0.0000 C   0  0  0  0  0  0  0  0  0  0  0  0
    1.5168    0.8595    0.0000 C   0  0  0  0  0  0  0  0  0  0  0  0
    0.0000    0.0000    0.0000 Br  0  0  0  0  0  0  0  0  0  0  0  0
    0.0000    1.7190    0.0000 C   0  0  0  0  0  0  0  0  0  0  0  0
    2.0224    1.7190    0.0000 Br  0  0  0  0  0  0  0  0  0  0  0  0
    2.0224    0.0000    0.0000 C   0  0  0  0  0  0  0  0  0  0  0  0
  1  2  1  0  0  0  0 
  1  3  1  0  0  0  0 
  1  4  1  0  0  0  0 
  2  5  1  0  0  0  0 
  2  6  1  0  0  0  0 
M  END
> <Name>
2,3-DIBROMOBUTANE

> <Source>
NIST2DMolFile

> <Tox>
0.580

> <CAS>
5408-86-6

$$$$

  CDK

 15 17  0  0  0  0  0  0  0  0999 V2000
    0.0000    0.0000    0.0000 Cl  0  0  0  0  0  0  0  0  0  0  0  0
   -1.2800   -0.9800   -0.5600 C   0  0  0  0  0  0  0  0  0  0  0  0
   -2.6000   -0.6800   -0.1600 C   0  0  0  0  0  0  0  0  0  0  0  0
   -1.0000   -2.0800   -1.4000 C   0  0  0  0  0  0  0  0  0  0  0  0
   -3.6400   -1.5000   -0.6400 C   0  0  0  0  0  0  0  0  0  0  0  0
   -2.0400   -2.9000   -1.8800 C   0  0  0  0  0  0  0  0  0  0  0  0
   -5.0000   -1.4800   -0.4400 C   0  0  0  0  0  0  0  0  0  0  0  0
   -3.3400   -2.5800   -1.4800 C   0  0  0  0  0  0  0  0  0  0  0  0
   -5.5600   -2.5200   -1.1600 C   0  0  0  0  0  0  0  0  0  0  0  0
   -5.8000   -0.6000    0.3000 C   0  0  0  0  0  0  0  0  0  0  0  0
   -4.5400   -3.2200   -1.8000 O   0  0  0  0  0  0  0  0  0  0  0  0
   -6.9400   -2.7800   -1.1800 C   0  0  0  0  0  0  0  0  0  0  0  0
   -7.2000   -0.8400    0.3200 C   0  0  0  0  0  0  0  0  0  0  0  0
   -7.7600   -1.9200   -0.4200 C   0  0  0  0  0  0  0  0  0  0  0  0
   -8.2200    0.1800    1.2200 Cl  0  0  0  0  0  0  0  0  0  0  0  0
  1  2  1  0  0  0  0 
  2  3  2  0  0  0  0 
  2  4  1  0  0  0  0 
  3  5  1  0  0  0  0 
  6  4  2  0  0  0  0 
  5  7  1  0  0  0  0 
  5  8  2  0  0  0  0 
  8  6  1  0  0  0  0 
  7  9  1  0  0  0  0 
  7 10  2  0  0  0  0 
 11  8  1  0  0  0  0 
  9 12  2  0  0  0  0 
  9 11  1  0  0  0  0 
 13 10  1  0  0  0  0 
 12 14  1  0  0  0  0 
 14 13  2  0  0  0  0 
 13 15  1  0  0  0  0 
M  END
> <Name>
2,8-DICHLORODIBENZOFURAN

> <Source>
NIH3DMolFile

> <Tox>
-5.533

> <CAS>
5409-83-6

$$$$

  CDK

 10  9  0  0  0  0  0  0  0  0999 V2000
   -2.6724    0.7043   -0.3314 C   0  0  0  0  0  0  0  0  0  0  0  0
   -2.0800   -0.6745   -0.4736 C   0  0  0  0  0  0  0  0  0  0  0  0
   -2.3825    1.4989    0.5328 O   0  0  0  0  0  0  0  0  0  0  0  0
   -0.6876   -0.8621    0.1295 C   0  0  0  0  0  0  0  0  0  0  0  0
    0.3707   -0.2031   -0.7647 C   0  0  0  0  0  0  0  0  0  0  0  0
   -0.4229   -2.3488    0.3123 C   0  0  0  0  0  0  0  0  0  0  0  0
    1.6285    0.3166   -0.0410 C   0  0  0  0  0  0  0  0  0  0  0  0
    2.4787   -0.8384    0.4822 C   0  0  0  0  0  0  0  0  0  0  0  0
    1.2444    1.2365    1.1152 C   0  0  0  0  0  0  0  0  0  0  0  0
    2.4630    1.1123   -1.0487 C   0  0  0  0  0  0  0  0  0  0  0  0
  1  2  1  0  0  0  0 
  1  3  2  0  0  0  0 
  2  4  1  0  0  0  0 
  4  5  1  0  0  0  0 
  4  6  1  0  0  0  0 
  5  7  1  0  0  0  0 
  7  8  1  0  0  0  0 
  7  9  1  0  0  0  0 
  7 10  1  0  0  0  0 
M  END
> <Name>
Hexanal, 3,5,5-trimethyl-

> <Source>
DougDB3DMolFile

> <Tox>
-1.097

> <CAS>
5435-64-3

$$$$

  CDK

 17 18  0  0  0  0  0  0  0  0999 V2000
    4.6099   -1.3250    0.0000 O   0  0  0  0  0  0  0  0  0  0  0  0
    3.4597   -1.9875    0.0000 C   0  0  0  0  0  0  0  0  0  0  0  0
    5.7416   -1.9875    0.0000 C   0  0  0  0  0  0  0  0  0  0  0  0
    3.4597   -3.3309    0.0000 C   0  0  0  0  0  0  0  0  0  0  0  0
    2.3003   -1.3250    0.0000 C   0  0  0  0  0  0  0  0  0  0  0  0
    6.9010   -1.3250    0.0000 C   0  0  0  0  0  0  0  0  0  0  0  0
    5.7416   -3.3309    0.0000 C   0  0  0  0  0  0  0  0  0  0  0  0
    2.3003   -3.9842    0.0000 C   0  0  0  0  0  0  0  0  0  0  0  0
    1.1502   -1.9875    0.0000 C   0  0  0  0  0  0  0  0  0  0  0  0
    2.3003   -0.0000    0.0000 Br  0  0  0  0  0  0  0  0  0  0  0  0
    8.0511   -1.9875    0.0000 C   0  0  0  0  0  0  0  0  0  0  0  0
    6.9010   -0.0000    0.0000 Br  0  0  0  0  0  0  0  0  0  0  0  0
    6.9010   -3.9842    0.0000 C   0  0  0  0  0  0  0  0  0  0  0  0
    1.1502   -3.3309    0.0000 C   0  0  0  0  0  0  0  0  0  0  0  0
    8.0511   -3.3309    0.0000 C   0  0  0  0  0  0  0  0  0  0  0  0
    0.0000   -3.9842    0.0000 Br  0  0  0  0  0  0  0  0  0  0  0  0
    9.2013   -3.9842    0.0000 Br  0  0  0  0  0  0  0  0  0  0  0  0
  1  2  1  0  0  0  0 
  1  3  1  0  0  0  0 
  2  4  2  0  0  0  0 
  2  5  1  0  0  0  0 
  3  6  2  0  0  0  0 
  3  7  1  0  0  0  0 
  4  8  1  0  0  0  0 
  5  9  2  0  0  0  0 
  5 10  1  0  0  0  0 
  6 11  1  0  0  0  0 
  6 12  1  0  0  0  0 
  7 13  2  0  0  0  0 
  8 14  2  0  0  0  0 
  9 14  1  0  0  0  0 
 11 15  2  0  0  0  0 
 13 15  1  0  0  0  0 
 14 16  1  0  0  0  0 
 15 17  1  0  0  0  0 
M  END
> <Name>
2,2',4,4'-Tetrabromodiphenyl ether

> <Source>
DSSTox2DMolFile

> <Tox>
-7.155

> <CAS>
5436-43-1

$$$$

  CDK

  8  8  0  0  0  0  0  0  0  0999 V2000
    0.0000    0.0000    0.0000 C   0  0  0  0  0  0  0  0  0  0  0  0
    0.0200   -0.6800   -1.3600 C   0  0  0  0  0  0  0  0  0  0  0  0
    1.4600   -0.8400   -1.9200 C   0  0  0  0  0  0  0  0  0  0  0  0
   -0.7000   -2.0400   -1.3400 C   0  0  0  0  0  0  0  0  0  0  0  0
    2.2800   -1.9400   -1.2200 C   0  0  0  0  0  0  0  0  0  0  0  0
    0.1000   -3.1000   -0.5800 C   0  0  0  0  0  0  0  0  0  0  0  0
    2.6200   -1.5200    0.1000 O   0  0  0  0  0  0  0  0  0  0  0  0
    1.5200   -3.2600   -1.1400 C   0  0  0  0  0  0  0  0  0  0  0  0
  1  2  1  0  0  0  0 
  2  3  1  0  0  0  0 
  2  4  1  0  0  0  0 
  3  5  1  0  0  0  0 
  6  4  1  0  0  0  0 
  5  7  1  0  0  0  0 
  5  8  1  0  0  0  0 
  8  6  1  0  0  0  0 
M  END
> <Name>
3-METHYLCYCLOHEXANOL (CIS)

> <Source>
NIH3DMolFile

> <Tox>
-0.275

> <CAS>
5454-79-5

$$$$

  CDK

 13 12  0  0  0  0  0  0  0  0999 V2000
   -2.9483    0.2698   -0.2677 O   0  0  0  0  0  0  0  0  0  0  0  0
   -1.8973    0.8496    0.3845 C   0  0  0  0  0  0  0  0  0  0  0  0
   -3.3125   -1.0368    0.1896 C   0  0  0  0  0  0  0  0  0  0  0  0
   -1.5867    0.6609    1.5527 O   0  0  0  0  0  0  0  0  0  0  0  0
   -1.1928    1.7952   -0.5631 C   0  0  0  0  0  0  0  0  0  0  0  0
   -4.5107   -1.5300   -0.6072 C   0  0  0  0  0  0  0  0  0  0  0  0
   -2.1173   -1.9673    0.0505 C   0  0  0  0  0  0  0  0  0  0  0  0
    0.2970    1.9526   -0.2596 C   0  0  0  0  0  0  0  0  0  0  0  0
    1.0686    0.6389   -0.4191 C   0  0  0  0  0  0  0  0  0  0  0  0
    2.5498    0.8215   -0.0817 C   0  0  0  0  0  0  0  0  0  0  0  0
    3.3158   -0.4965   -0.2083 C   0  0  0  0  0  0  0  0  0  0  0  0
    4.7885   -0.3215    0.1609 C   0  0  0  0  0  0  0  0  0  0  0  0
    5.5460   -1.6364    0.0688 C   0  0  0  0  0  0  0  0  0  0  0  0
  1  2  1  0  0  0  0 
  1  3  1  0  0  0  0 
  4  2  2  0  0  0  0 
  5  2  1  0  0  0  0 
  3  6  1  0  0  0  0 
  3  7  1  0  0  0  0 
  8  5  1  0  0  0  0 
  9  8  1  0  0  0  0 
  9 10  1  0  0  0  0 
 10 11  1  0  0  0  0 
 11 12  1  0  0  0  0 
 12 13  1  0  0  0  0 
M  END
> <Name>
ISOPROPYL OCTANOATE

> <Source>
Chemidplus3DMolFile

> <Tox>
-0.963

> <CAS>
5458-59-3

$$$$

  CDK

 24 27  0  0  0  0  0  0  0  0999 V2000
    6.5627   -2.0589   -0.0001 Cl  0  0  0  0  0  0  0  0  0  0  0  0
    5.2454   -0.9494    0.0005 C   0  0  0  0  0  0  0  0  0  0  0  0
    3.9354   -1.4293    0.0001 C   0  0  0  0  0  0  0  0  0  0  0  0
    5.4981    0.4302    0.0002 C   0  0  0  0  0  0  0  0  0  0  0  0
    2.9023   -0.5036   -0.0005 C   0  0  0  0  0  0  0  0  0  0  0  0
    4.4437    1.3483   -0.0004 C   0  0  0  0  0  0  0  0  0  0  0  0
    3.1412    0.8693   -0.0006 C   0  0  0  0  0  0  0  0  0  0  0  0
    1.4699   -0.8266   -0.0001 C   0  0  0  0  0  0  0  0  0  0  0  0
    4.7483    2.8087    0.0001 C   0  0  0  0  0  0  0  0  0  0  0  0
    1.6609    1.8455   -0.0001 S   0  0  0  0  0  0  0  0  0  0  0  0
    1.0262   -1.9601    0.0016 O   0  0  0  0  0  0  0  0  0  0  0  0
    0.6671    0.4259   -0.0001 C   0  0  0  0  0  0  0  0  0  0  0  0
   -0.6671    0.4259    0.0001 C   0  0  0  0  0  0  0  0  0  0  0  0
   -1.6609    1.8455    0.0000 S   0  0  0  0  0  0  0  0  0  0  0  0
   -1.4700   -0.8266    0.0001 C   0  0  0  0  0  0  0  0  0  0  0  0
   -3.1413    0.8693    0.0005 C   0  0  0  0  0  0  0  0  0  0  0  0
   -1.0261   -1.9601   -0.0016 O   0  0  0  0  0  0  0  0  0  0  0  0
   -2.9024   -0.5036    0.0005 C   0  0  0  0  0  0  0  0  0  0  0  0
   -4.4437    1.3482    0.0004 C   0  0  0  0  0  0  0  0  0  0  0  0
   -3.9354   -1.4294   -0.0001 C   0  0  0  0  0  0  0  0  0  0  0  0
   -5.4981    0.4303   -0.0002 C   0  0  0  0  0  0  0  0  0  0  0  0
   -4.7483    2.8086    0.0000 C   0  0  0  0  0  0  0  0  0  0  0  0
   -5.2454   -0.9494   -0.0005 C   0  0  0  0  0  0  0  0  0  0  0  0
   -6.5626   -2.0588    0.0001 Cl  0  0  0  0  0  0  0  0  0  0  0  0
  1  2  1  0  0  0  0 
  3  2  2  0  0  0  0 
  4  2  1  0  0  0  0 
  5  3  1  0  0  0  0 
  6  4  2  0  0  0  0 
  5  7  2  0  0  0  0 
  5  8  1  0  0  0  0 
  7  6  1  0  0  0  0 
  6  9  1  0  0  0  0 
 10  7  1  0  0  0  0 
 11  8  2  0  0  0  0 
 12  8  1  0  0  0  0 
 10 12  1  0  0  0  0 
 12 13  2  0  0  0  0 
 14 13  1  0  0  0  0 
 13 15  1  0  0  0  0 
 14 16  1  0  0  0  0 
 17 15  2  0  0  0  0 
 18 15  1  0  0  0  0 
 18 16  2  0  0  0  0 
 16 19  1  0  0  0  0 
 18 20  1  0  0  0  0 
 19 21  2  0  0  0  0 
 19 22  1  0  0  0  0 
 20 23  2  0  0  0  0 
 21 23  1  0  0  0  0 
 24 23  1  0  0  0  0 
M  END
> <Name>
C.I. VIOLET 2

> <Source>
Chemidplus3DMolFile

> <Tox>
-9.523

> <CAS>
5462-29-3

$$$$

  CDK

 16 16  0  0  0  0  0  0  0  0999 V2000
    3.4455   -1.9889    0.0000 C   0  0  0  0  0  0  0  0  0  0  0  0
    2.3110   -2.6612    0.0000 N   0  0  0  0  0  0  0  0  0  0  0  0
    4.6010   -2.6612    0.0000 O   0  0  0  0  0  0  0  0  0  0  0  0
    3.4455   -0.6583    0.0000 C   0  0  0  0  0  0  0  0  0  0  0  0
    1.1555   -1.9889    0.0000 C   0  0  0  0  0  0  0  0  0  0  0  0
    4.6010   -3.9917    0.0000 P   0  0  0  0  0  0  0  0  0  0  0  0
    2.3110   -0.0000    0.0000 C   0  0  0  0  0  0  0  0  0  0  0  0
    4.6010   -0.0000    0.0000 Cl  0  0  0  0  0  0  0  0  0  0  0  0
    0.0000   -2.6612    0.0000 Cl  0  0  0  0  0  0  0  0  0  0  0  0
    1.1555   -0.6583    0.0000 C   0  0  0  0  0  0  0  0  0  0  0  0
    3.2704   -3.9917    0.0000 S   0  0  0  0  0  0  0  0  0  0  0  0
    5.9316   -3.9917    0.0000 O   0  0  0  0  0  0  0  0  0  0  0  0
    4.6010   -5.3223    0.0000 O   0  0  0  0  0  0  0  0  0  0  0  0
    0.0000   -0.0000    0.0000 Cl  0  0  0  0  0  0  0  0  0  0  0  0
    7.0030   -3.1934    0.0000 C   0  0  0  0  0  0  0  0  0  0  0  0
    5.7565   -5.9806    0.0000 C   0  0  0  0  0  0  0  0  0  0  0  0
  1  2  2  0  0  0  0 
  1  3  1  0  0  0  0 
  1  4  1  0  0  0  0 
  2  5  1  0  0  0  0 
  6  3  1  0  0  0  0 
  4  7  2  0  0  0  0 
  4  8  1  0  0  0  0 
  5  9  1  0  0  0  0 
  5 10  2  0  0  0  0 
  6 11  2  0  0  0  0 
  6 12  1  0  0  0  0 
  6 13  1  0  0  0  0 
  7 10  1  0  0  0  0 
 10 14  1  0  0  0  0 
 12 15  1  0  0  0  0 
 13 16  1  0  0  0  0 
M  END
> <Name>
CHLORPYRIFOS METHYL

> <Source>
DSSTox2DMolFile

> <Tox>
-4.377

> <CAS>
5598-13-0

$$$$

  CDK

 13 13  0  0  0  0  0  0  0  0999 V2000
    1.9611    2.4274    3.7346 C   0  0  0  0  0  0  0  0  0  0  0  0
    3.4170    2.7637    3.4606 C   0  0  0  0  0  0  0  0  0  0  0  0
    1.0538    3.0857    2.7058 C   0  0  0  0  0  0  0  0  0  0  0  0
    3.8195    2.3339    2.0492 C   0  0  0  0  0  0  0  0  0  0  0  0
    1.4556    2.6952    1.2916 C   0  0  0  0  0  0  0  0  0  0  0  0
    2.9176    3.0189    1.0237 C   0  0  0  0  0  0  0  0  0  0  0  0
    5.2895    2.6567    1.7869 C   0  0  0  0  0  0  0  0  0  0  0  0
    6.2010    1.8320    2.6835 C   0  0  0  0  0  0  0  0  0  0  0  0
    7.6452    2.2911    2.5875 C   0  0  0  0  0  0  0  0  0  0  0  0
    8.5527    1.4467    3.4674 C   0  0  0  0  0  0  0  0  0  0  0  0
    9.9972    1.9107    3.3791 C   0  0  0  0  0  0  0  0  0  0  0  0
   10.9063    1.0652    4.2568 C   0  0  0  0  0  0  0  0  0  0  0  0
   12.3438    1.5262    4.1720 C   0  0  0  0  0  0  0  0  0  0  0  0
  2  1  1  0  0  0  0 
  1  3  1  0  0  0  0 
  2  4  1  0  0  0  0 
  5  3  1  0  0  0  0 
  6  4  1  0  0  0  0 
  4  7  1  0  0  0  0 
  5  6  1  0  0  0  0 
  7  8  1  0  0  0  0 
  8  9  1  0  0  0  0 
  9 10  1  0  0  0  0 
 10 11  1  0  0  0  0 
 11 12  1  0  0  0  0 
 12 13  1  0  0  0  0 
M  END
> <Name>
HEPTYLCYCLOHEXANE

> <Source>
NIST3DMolFile

> <Tox>
-1.398

> <CAS>
5617-41-4

$$$$

  CDK

 15 15  0  0  0  0  0  0  0  0999 V2000
    5.7574   -1.9850    0.0000 N   0  0  0  0  0  0  0  0  0  0  0  0
    5.7574   -3.3111    0.0000 C   0  0  0  0  0  0  0  0  0  0  0  0
    4.6043   -1.3261    0.0000 C   0  0  0  0  0  0  0  0  0  0  0  0
    4.6043   -3.9865    0.0000 N   0  0  0  0  0  0  0  0  0  0  0  0
    6.9105   -3.9865    0.0000 N   0  0  0  0  0  0  0  0  0  0  0  0
    3.4511   -1.9850    0.0000 N   0  0  0  0  0  0  0  0  0  0  0  0
    4.6043   -0.0000    0.0000 Cl  0  0  0  0  0  0  0  0  0  0  0  0
    3.4511   -3.3111    0.0000 C   0  0  0  0  0  0  0  0  0  0  0  0
    6.9105   -5.3126    0.0000 C   0  0  0  0  0  0  0  0  0  0  0  0
    2.3063   -3.9865    0.0000 N   0  0  0  0  0  0  0  0  0  0  0  0
    8.2366   -5.3126    0.0000 C   0  0  0  0  0  0  0  0  0  0  0  0
    5.5844   -5.3126    0.0000 C   0  0  0  0  0  0  0  0  0  0  0  0
    6.9105   -6.6387    0.0000 C   0  0  0  0  0  0  0  0  0  0  0  0
    1.1531   -3.3111    0.0000 C   0  0  0  0  0  0  0  0  0  0  0  0
    0.0000   -3.9865    0.0000 C   0  0  0  0  0  0  0  0  0  0  0  0
  1  2  2  0  0  0  0 
  1  3  1  0  0  0  0 
  2  4  1  0  0  0  0 
  2  5  1  0  0  0  0 
  6  3  2  0  0  0  0 
  3  7  1  0  0  0  0 
  4  8  2  0  0  0  0 
  5  9  1  0  0  0  0 
  8  6  1  0  0  0  0 
  8 10  1  0  0  0  0 
  9 11  1  0  0  0  0 
  9 12  1  0  0  0  0 
  9 13  1  0  0  0  0 
 10 14  1  0  0  0  0 
 14 15  1  0  0  0  0 
M  END
> <Name>
TERBUTHYLAZINE

> <Source>
DSSTox2DMolFile

> <Tox>
-5.951

> <CAS>
5915-41-3

$$$$

  CDK

 10 10  0  0  0  0  0  0  0  0999 V2000
    0.0000   -0.0000    0.0000 C   0  0  0  0  0  0  0  0  0  0  0  0
    0.6640   -1.1546    0.0000 C   0  0  0  0  0  0  0  0  0  0  0  0
    0.0000   -2.3031    0.0000 C   0  0  0  0  0  0  0  0  0  0  0  0
    1.9921   -1.1546    0.0000 C   0  0  0  0  0  0  0  0  0  0  0  0
    2.6561   -0.0000    0.0000 C   0  0  0  0  0  0  0  0  0  0  0  0
    2.6561   -2.3031    0.0000 C   0  0  0  0  0  0  0  0  0  0  0  0
    3.9901   -0.0000    0.0000 C   0  0  0  0  0  0  0  0  0  0  0  0
    3.9901   -2.3031    0.0000 C   0  0  0  0  0  0  0  0  0  0  0  0
    4.6542   -1.1546    0.0000 C   0  0  0  0  0  0  0  0  0  0  0  0
    5.9822   -1.1546    0.0000 C   0  0  0  0  0  0  0  0  0  0  0  0
  1  2  1  0  0  0  0 
  2  3  2  0  0  0  0 
  4  2  1  6  0  0  0 
  4  5  1  0  0  0  0 
  4  6  1  0  0  0  0 
  5  7  1  0  0  0  0 
  8  6  1  0  0  0  0 
  7  9  1  0  0  0  0 
  9  8  2  0  0  0  0 
  9 10  1  0  0  0  0 
M  END
> <Name>
D-LIMONENE

> <Source>
DSSTox2DMolFile

> <Tox>
0.297

> <CAS>
5989-27-5

$$$$

  CDK

 10 10  0  0  0  0  0  0  0  0999 V2000
    6.2765    3.0741    0.9011 C   0  0  0  0  0  0  0  0  0  0  0  0
    5.4584    2.7553    2.1065 C   0  0  0  0  0  0  0  0  0  0  0  0
    5.5210    3.5209    3.1949 C   0  0  0  0  0  0  0  0  0  0  0  0
    4.6024    1.5241    1.9628 C   0  0  0  0  0  0  0  0  0  0  0  0
    3.9484    1.0195    3.2459 C   0  0  0  0  0  0  0  0  0  0  0  0
    3.5419    1.7221    0.8741 C   0  0  0  0  0  0  0  0  0  0  0  0
    2.8206    1.9108    3.7406 C   0  0  0  0  0  0  0  0  0  0  0  0
    2.2663    2.3068    1.3563 C   0  0  0  0  0  0  0  0  0  0  0  0
    1.9216    2.3794    2.6473 C   0  0  0  0  0  0  0  0  0  0  0  0
    0.6216    2.9544    3.0819 C   0  0  0  0  0  0  0  0  0  0  0  0
  1  2  1  0  0  0  0 
  2  3  2  0  0  0  0 
  2  4  1  0  0  0  0 
  4  5  1  0  0  0  0 
  4  6  1  0  0  0  0 
  5  7  1  0  0  0  0 
  8  6  1  0  0  0  0 
  7  9  1  0  0  0  0 
  9  8  2  0  0  0  0 
  9 10  1  0  0  0  0 
M  END
> <Name>
(-)-1-METHYL-4-(1-METHYLETHENYL)CYCLOHEXENE

> <Source>
NIST3DMolFile

> <Tox>
0.158

> <CAS>
5989-54-8

$$$$

  CDK

 19 19  0  0  0  0  0  0  0  0999 V2000
    3.7555    6.7573    5.4958 C   0  0  0  0  0  0  0  0  0  0  0  0
    4.0178    5.6885    4.4446 C   0  0  0  0  0  0  0  0  0  0  0  0
    2.4301    7.4760    5.2731 C   0  0  0  0  0  0  0  0  0  0  0  0
    3.4109    6.0644    3.0941 C   0  0  0  0  0  0  0  0  0  0  0  0
    1.4187    6.5755    4.5871 C   0  0  0  0  0  0  0  0  0  0  0  0
    1.8849    6.1580    3.1984 C   0  0  0  0  0  0  0  0  0  0  0  0
    3.8084    5.0514    2.0204 C   0  0  0  0  0  0  0  0  0  0  0  0
    5.3049    5.0629    1.7496 C   0  0  0  0  0  0  0  0  0  0  0  0
    5.7593    3.7753    1.0773 C   0  0  0  0  0  0  0  0  0  0  0  0
    7.2491    3.5244    1.2541 C   0  0  0  0  0  0  0  0  0  0  0  0
    7.6781    3.4078    2.7110 C   0  0  0  0  0  0  0  0  0  0  0  0
    7.2170    2.1330    3.4065 C   0  0  0  0  0  0  0  0  0  0  0  0
    5.8202    2.2593    3.9949 C   0  0  0  0  0  0  0  0  0  0  0  0
    5.4465    1.0538    4.8392 C   0  0  0  0  0  0  0  0  0  0  0  0
    4.0569    1.1811    5.4504 C   0  0  0  0  0  0  0  0  0  0  0  0
    2.9243    0.8330    4.4933 C   0  0  0  0  0  0  0  0  0  0  0  0
    2.4623    2.0177    3.6601 C   0  0  0  0  0  0  0  0  0  0  0  0
    1.3101    1.6322    2.7456 C   0  0  0  0  0  0  0  0  0  0  0  0
    0.9055    2.7787    1.8471 C   0  0  0  0  0  0  0  0  0  0  0  0
  1  2  1  0  0  0  0 
  3  1  1  0  0  0  0 
  2  4  1  0  0  0  0 
  5  3  1  0  0  0  0 
  4  6  1  0  0  0  0 
  4  7  1  0  0  0  0 
  6  5  1  0  0  0  0 
  7  8  1  0  0  0  0 
  8  9  1  0  0  0  0 
  9 10  1  0  0  0  0 
 10 11  1  0  0  0  0 
 11 12  1  0  0  0  0 
 12 13  1  0  0  0  0 
 13 14  1  0  0  0  0 
 14 15  1  0  0  0  0 
 15 16  1  0  0  0  0 
 16 17  1  0  0  0  0 
 17 18  1  0  0  0  0 
 18 19  1  0  0  0  0 
M  END
> <Name>
N-TRIDECYLCYCLOHEXANE

> <Source>
NIST3DMolFile

> <Tox>
-5.039

> <CAS>
6006-33-3

$$$$

  CDK

 21 21  0  0  0  0  0  0  0  0999 V2000
   -6.8894    0.1815    0.1737 C   0  0  0  0  0  0  0  0  0  0  0  0
   -8.0551    1.1658    0.0078 C   0  0  0  0  0  0  0  0  0  0  0  0
   -7.1910   -1.1467   -0.5333 C   0  0  0  0  0  0  0  0  0  0  0  0
   -5.5907    0.7898   -0.3522 C   0  0  0  0  0  0  0  0  0  0  0  0
   -9.3756    0.5601    0.4780 C   0  0  0  0  0  0  0  0  0  0  0  0
   -8.5130   -1.7486   -0.0624 C   0  0  0  0  0  0  0  0  0  0  0  0
   -4.3673    0.1016    0.2546 C   0  0  0  0  0  0  0  0  0  0  0  0
   -9.6677   -0.7642   -0.2207 C   0  0  0  0  0  0  0  0  0  0  0  0
   -3.0368    0.6837   -0.2312 C   0  0  0  0  0  0  0  0  0  0  0  0
   -1.8122   -0.0527    0.3192 C   0  0  0  0  0  0  0  0  0  0  0  0
   -0.5138    0.5910   -0.1752 C   0  0  0  0  0  0  0  0  0  0  0  0
    0.7472   -0.0991    0.3553 C   0  0  0  0  0  0  0  0  0  0  0  0
    2.0442    0.5618   -0.1195 C   0  0  0  0  0  0  0  0  0  0  0  0
    3.3048   -0.1637    0.3627 C   0  0  0  0  0  0  0  0  0  0  0  0
    4.6007    0.4532   -0.1706 C   0  0  0  0  0  0  0  0  0  0  0  0
    5.8223   -0.3505    0.2818 C   0  0  0  0  0  0  0  0  0  0  0  0
    7.1526    0.2396   -0.1969 C   0  0  0  0  0  0  0  0  0  0  0  0
    8.4136   -0.5099    0.2470 C   0  0  0  0  0  0  0  0  0  0  0  0
    9.7050    0.0914   -0.3131 C   0  0  0  0  0  0  0  0  0  0  0  0
   10.9666   -0.6112    0.1951 C   0  0  0  0  0  0  0  0  0  0  0  0
   12.2555    0.0270   -0.3000 C   0  0  0  0  0  0  0  0  0  0  0  0
  1  2  1  0  0  0  0 
  1  3  1  0  0  0  0 
  1  4  1  0  0  0  0 
  2  5  1  0  0  0  0 
  3  6  1  0  0  0  0 
  4  7  1  0  0  0  0 
  5  8  1  0  0  0  0 
  6  8  1  0  0  0  0 
  7  9  1  0  0  0  0 
  9 10  1  0  0  0  0 
 10 11  1  0  0  0  0 
 11 12  1  0  0  0  0 
 12 13  1  0  0  0  0 
 13 14  1  0  0  0  0 
 14 15  1  0  0  0  0 
 15 16  1  0  0  0  0 
 16 17  1  0  0  0  0 
 17 18  1  0  0  0  0 
 18 19  1  0  0  0  0 
 19 20  1  0  0  0  0 
 20 21  1  0  0  0  0 
M  END
> <Name>
N-PENTADECYLCYCLOHEXANE

> <Source>
Chemidplus3DMolFile

> <Tox>
-6.461

> <CAS>
6006-95-7

$$$$

  CDK

  6  5  0  0  0  0  0  0  0  0999 V2000
    2.1214    1.0127    0.0174 C   0  0  0  0  0  0  0  0  0  0  0  0
    1.0247    0.0033   -0.3231 C   0  0  0  0  0  0  0  0  0  0  0  0
   -0.3273    0.4670    0.2361 C   0  0  0  0  0  0  0  0  0  0  0  0
    1.2969   -1.2678    0.2419 O   0  0  0  0  0  0  0  0  0  0  0  0
   -1.4938   -0.2907   -0.3775 C   0  0  0  0  0  0  0  0  0  0  0  0
   -2.8156    0.1993    0.1700 C   0  0  0  0  0  0  0  0  0  0  0  0
  1  2  1  0  0  0  0 
  2  3  1  0  0  0  0 
  2  4  1  0  0  0  0 
  3  5  1  0  0  0  0 
  5  6  1  0  0  0  0 
M  END
> <Name>
2-PENTANOL

> <Source>
DougDB3DMolFile

> <Tox>
0.786

> <CAS>
6032-29-7

$$$$

  CDK

  7  6  0  0  0  0  0  0  0  0999 V2000
    4.2107    2.5070    2.5238 C   0  0  0  0  0  0  0  0  0  0  0  0
    5.3339    1.5564    2.7960 C   0  0  0  0  0  0  0  0  0  0  0  0
    3.0174    1.7826    1.9152 C   0  0  0  0  0  0  0  0  0  0  0  0
    5.9077    0.8765    1.6043 C   0  0  0  0  0  0  0  0  0  0  0  0
    5.7930    1.3398    4.0279 C   0  0  0  0  0  0  0  0  0  0  0  0
    1.9576    2.7594    1.4352 C   0  0  0  0  0  0  0  0  0  0  0  0
    0.7623    2.0375    0.8556 C   0  0  0  0  0  0  0  0  0  0  0  0
  1  2  1  0  0  0  0 
  1  3  1  0  0  0  0 
  2  4  1  0  0  0  0 
  2  5  2  0  0  0  0 
  3  6  1  0  0  0  0 
  6  7  1  0  0  0  0 
M  END
> <Name>
2-METHYL-1-HEXENE

> <Source>
NIST3DMolFile

> <Tox>
1.785

> <CAS>
6094-02-6

$$$$

  CDK

  6  5  0  0  0  0  0  0  0  0999 V2000
    1.4927    0.0000    0.0000 C   0  0  0  0  0  0  0  0  0  0  0  0
    2.5221    0.0000    0.0000 C   0  0  0  0  0  0  0  0  0  0  0  0
    0.9780    0.8750    0.0000 C   0  0  0  0  0  0  0  0  0  0  0  0
    3.0883    0.8236    0.0000 C   0  0  0  0  0  0  0  0  0  0  0  0
    0.0000    0.8750    0.0000 O   0  0  0  0  0  0  0  0  0  0  0  0
    4.0663    0.8236    0.0000 O   0  0  0  0  0  0  0  0  0  0  0  0
  1  2  2  0  0  0  0 
  1  3  1  0  0  0  0 
  2  4  1  0  0  0  0 
  3  5  1  0  0  0  0 
  4  6  1  0  0  0  0 
M  END
> <Name>
2-BUTENE-1,4-DIOL (CIS)

> <Source>
NIST2DMolFile

> <Tox>
-2.185

> <CAS>
6117-80-2

$$$$

  CDK

  9  8  0  0  0  0  0  0  0  0999 V2000
    1.7553    1.3541    0.0000 O   0  0  0  0  0  0  0  0  0  0  0  0
    0.9027    0.8526    0.0000 C   0  0  0  0  0  0  0  0  0  0  0  0
    2.6078    0.8526    0.0000 C   0  0  0  0  0  0  0  0  0  0  0  0
    0.4012    1.7051    0.0000 C   0  0  0  0  0  0  0  0  0  0  0  0
    1.4042    0.0000    0.0000 C   0  0  0  0  0  0  0  0  0  0  0  0
    0.0000    0.3511    0.0000 C   0  0  0  0  0  0  0  0  0  0  0  0
    2.1063    0.0000    0.0000 C   0  0  0  0  0  0  0  0  0  0  0  0
    3.1093    1.7051    0.0000 C   0  0  0  0  0  0  0  0  0  0  0  0
    3.5105    0.3511    0.0000 C   0  0  0  0  0  0  0  0  0  0  0  0
  1  2  1  0  0  0  0 
  1  3  1  0  0  0  0 
  2  4  1  0  0  0  0 
  2  5  1  0  0  0  0 
  2  6  1  0  0  0  0 
  3  7  1  0  0  0  0 
  3  8  1  0  0  0  0 
  3  9  1  0  0  0  0 
M  END
> <Name>
DI (TERT-BUTYL) ETHER

> <Source>
NIST2DMolFile

> <Tox>
1.513

> <CAS>
6163-66-2

$$$$

  CDK

 13 13  0  0  0  0  0  0  0  0999 V2000
    2.4200    0.8415   -0.0052 C   0  0  0  0  0  0  0  0  0  0  0  0
    1.6203   -0.1746    0.0008 N   0  0  0  0  0  0  0  0  0  0  0  0
    3.8709    0.6575   -0.0031 N   0  0  0  0  0  0  0  0  0  0  0  0
    0.1950   -0.0220   -0.0003 C   0  0  0  0  0  0  0  0  0  0  0  0
    4.3828    0.0115   -1.2332 C   0  0  0  0  0  0  0  0  0  0  0  0
    4.3813    0.0319    1.2381 C   0  0  0  0  0  0  0  0  0  0  0  0
   -0.5936   -1.1881    0.0021 C   0  0  0  0  0  0  0  0  0  0  0  0
   -0.4118    1.2418   -0.0028 C   0  0  0  0  0  0  0  0  0  0  0  0
   -1.9838   -1.0584    0.0022 C   0  0  0  0  0  0  0  0  0  0  0  0
    0.0104   -2.5457    0.0032 C   0  0  0  0  0  0  0  0  0  0  0  0
   -1.7933    1.3581   -0.0028 C   0  0  0  0  0  0  0  0  0  0  0  0
   -2.5709    0.2026   -0.0002 C   0  0  0  0  0  0  0  0  0  0  0  0
   -4.2509    0.3345    0.0001 Cl  0  0  0  0  0  0  0  0  0  0  0  0
  1  2  2  0  0  0  0 
  1  3  1  0  0  0  0 
  2  4  1  0  0  0  0 
  3  5  1  0  0  0  0 
  3  6  1  0  0  0  0 
  4  7  1  0  0  0  0 
  4  8  2  0  0  0  0 
  7  9  2  0  0  0  0 
  7 10  1  0  0  0  0 
 11  8  1  0  0  0  0 
  9 12  1  0  0  0  0 
 12 11  2  0  0  0  0 
 12 13  1  0  0  0  0 
M  END
> <Name>
CHLORDIMEFORM

> <Source>
DougDB3DMolFile

> <Tox>
-3.035

> <CAS>
6164-98-3

$$$$

  CDK

 13 12  0  0  0  0  0  0  0  0999 V2000
    0.0000   -2.6588    0.0000 C   0  0  0  0  0  0  0  0  0  0  0  0
    1.1510   -1.9912    0.0000 C   0  0  0  0  0  0  0  0  0  0  0  0
    2.3020   -2.6588    0.0000 C   0  0  0  0  0  0  0  0  0  0  0  0
    3.4530   -1.9912    0.0000 C   0  0  0  0  0  0  0  0  0  0  0  0
    4.6040   -2.6588    0.0000 C   0  0  0  0  0  0  0  0  0  0  0  0
    5.7550   -1.9912    0.0000 C   0  0  0  0  0  0  0  0  0  0  0  0
    6.9059   -2.6588    0.0000 C   0  0  0  0  0  0  0  0  0  0  0  0
    8.0569   -1.9912    0.0000 C   0  0  0  0  0  0  0  0  0  0  0  0
    9.2079   -2.6588    0.0000 C   0  0  0  0  0  0  0  0  0  0  0  0
   10.3589   -1.9912    0.0000 C   0  0  0  0  0  0  0  0  0  0  0  0
   10.3589   -0.6676    0.0000 C   0  0  0  0  0  0  0  0  0  0  0  0
    9.2079   -0.0000    0.0000 O   0  0  0  0  0  0  0  0  0  0  0  0
   11.5099   -0.0000    0.0000 C   0  0  0  0  0  0  0  0  0  0  0  0
  1  2  1  0  0  0  0 
  2  3  1  0  0  0  0 
  3  4  1  0  0  0  0 
  4  5  1  0  0  0  0 
  5  6  1  0  0  0  0 
  6  7  1  0  0  0  0 
  7  8  1  0  0  0  0 
  8  9  1  0  0  0  0 
  9 10  1  0  0  0  0 
 10 11  1  0  0  0  0 
 11 12  2  0  0  0  0 
 11 13  1  0  0  0  0 
M  END
> <Name>
METHYL DECYL KETONE

> <Source>
DSSTox2DMolFile

> <Tox>
-1.686

> <CAS>
6175-49-1

$$$$

  CDK

 20 21  0  0  0  0  0  0  0  0999 V2000
    2.2778   -3.1524    0.5635 O   0  0  0  0  0  0  0  0  0  0  0  0
    1.2872   -2.4597    0.2319 N   0  0  0  0  0  0  0  0  0  0  0  0
    0.1420   -2.9510    0.0975 O   0  0  0  0  0  0  0  0  0  0  0  0
    1.4689   -1.0675    0.0006 C   0  0  0  0  0  0  0  0  0  0  0  0
    0.3617   -0.2680   -0.3767 C   0  0  0  0  0  0  0  0  0  0  0  0
    2.7434   -0.5207    0.1507 C   0  0  0  0  0  0  0  0  0  0  0  0
   -0.9007   -0.7821   -0.5310 N   0  0  0  0  0  0  0  0  0  0  0  0
    0.6053    1.1091   -0.5948 C   0  0  0  0  0  0  0  0  0  0  0  0
    2.9488    0.8408   -0.0720 C   0  0  0  0  0  0  0  0  0  0  0  0
   -2.1801   -0.2549   -0.2588 C   0  0  0  0  0  0  0  0  0  0  0  0
    1.8797    1.6557   -0.4448 C   0  0  0  0  0  0  0  0  0  0  0  0
    4.2460    1.3984    0.0805 N   0  0  0  0  0  0  0  0  0  0  0  0
   -3.2933   -0.7349   -0.9487 C   0  0  0  0  0  0  0  0  0  0  0  0
   -2.3323    0.7472    0.6996 C   0  0  0  0  0  0  0  0  0  0  0  0
    4.4082    2.6254   -0.1248 O   0  0  0  0  0  0  0  0  0  0  0  0
    5.1942    0.6486    0.4167 O   0  0  0  0  0  0  0  0  0  0  0  0
   -4.5587   -0.2126   -0.6806 C   0  0  0  0  0  0  0  0  0  0  0  0
   -3.5976    1.2693    0.9677 C   0  0  0  0  0  0  0  0  0  0  0  0
   -4.7109    0.7894    0.2776 C   0  0  0  0  0  0  0  0  0  0  0  0
   -5.9896    1.3199    0.5461 N   0  0  0  0  0  0  0  0  0  0  0  0
  1  2  1  0  0  0  0 
  3  2  2  0  0  0  0 
  2  4  1  0  0  0  0 
  5  4  2  0  0  0  0 
  4  6  1  0  0  0  0 
  7  5  1  0  0  0  0 
  5  8  1  0  0  0  0 
  6  9  2  0  0  0  0 
  7 10  1  0  0  0  0 
  8 11  2  0  0  0  0 
 12  9  1  0  0  0  0 
  9 11  1  0  0  0  0 
 10 13  2  0  0  0  0 
 10 14  1  0  0  0  0 
 15 12  1  0  0  0  0 
 16 12  2  0  0  0  0 
 13 17  1  0  0  0  0 
 14 18  2  0  0  0  0 
 19 17  2  0  0  0  0 
 19 18  1  0  0  0  0 
 20 19  1  0  0  0  0 
M  CHG  1   1  -1
M  CHG  1   2   1
M  CHG  1  12   1
M  CHG  1  15  -1
M  END
> <Name>
N-(2,4-DINITROPHENYL)-1,4-BENZENEDIAMINE

> <Source>
Chemidplus3DMolFile

> <Tox>
-10.222

> <CAS>
6373-73-5

$$$$

  CDK

 14 14  0  0  0  0  0  0  0  0999 V2000
    4.5023    1.1026   -0.4036 Cl  0  0  0  0  0  0  0  0  0  0  0  0
    2.8418    0.7262   -0.1521 C   0  0  0  0  0  0  0  0  0  0  0  0
    2.3727   -0.5631   -0.4030 C   0  0  0  0  0  0  0  0  0  0  0  0
    1.9650    1.7112    0.3023 C   0  0  0  0  0  0  0  0  0  0  0  0
    1.0267   -0.8675   -0.1997 C   0  0  0  0  0  0  0  0  0  0  0  0
    0.6190    1.4069    0.5059 C   0  0  0  0  0  0  0  0  0  0  0  0
    0.1499    0.1176    0.2548 C   0  0  0  0  0  0  0  0  0  0  0  0
    0.5415   -2.2528   -0.4736 C   0  0  0  0  0  0  0  0  0  0  0  0
   -1.1681   -0.1623    0.4581 O   0  0  0  0  0  0  0  0  0  0  0  0
    0.6582   -3.0346    0.7081 O   0  0  0  0  0  0  0  0  0  0  0  0
   -2.0935    0.9068    0.2729 C   0  0  0  0  0  0  0  0  0  0  0  0
   -3.4211    0.3594   -0.1727 C   0  0  0  0  0  0  0  0  0  0  0  0
   -4.3171    1.3674   -0.3218 O   0  0  0  0  0  0  0  0  0  0  0  0
   -3.6773   -0.8178   -0.3757 O   0  0  0  0  0  0  0  0  0  0  0  0
  1  2  1  0  0  0  0 
  3  2  2  0  0  0  0 
  2  4  1  0  0  0  0 
  5  3  1  0  0  0  0 
  6  4  2  0  0  0  0 
  5  7  2  0  0  0  0 
  5  8  1  0  0  0  0 
  7  6  1  0  0  0  0 
  9  7  1  0  0  0  0 
 10  8  1  0  0  0  0 
  9 11  1  0  0  0  0 
 11 12  1  0  0  0  0 
 13 12  1  0  0  0  0 
 14 12  2  0  0  0  0 
M  END
> <Name>
Cloxyfonac

> <Source>
Chemidplus3DMolFile

> <Tox>
-6.176

> <CAS>
6386-63-6

$$$$

  CDK

 11 10  0  0  0  0  0  0  0  0999 V2000
    3.4474   -2.0009    0.0000 C   0  0  0  0  0  0  0  0  0  0  0  0
    4.6046   -1.3259    0.0000 C   0  0  0  0  0  0  0  0  0  0  0  0
    2.2983   -1.3259    0.0000 O   0  0  0  0  0  0  0  0  0  0  0  0
    4.6046   -0.0000    0.0000 C   0  0  0  0  0  0  0  0  0  0  0  0
    5.7377   -2.0009    0.0000 O   0  0  0  0  0  0  0  0  0  0  0  0
    1.1491   -2.0009    0.0000 N   0  0  0  0  0  0  0  0  0  0  0  0
    6.8868   -1.3259    0.0000 N   0  0  0  0  0  0  0  0  0  0  0  0
    0.0000   -1.3259    0.0000 O   0  0  0  0  0  0  0  0  0  0  0  0
    1.1491   -3.3269    0.0000 O   0  0  0  0  0  0  0  0  0  0  0  0
    8.0359   -2.0009    0.0000 O   0  0  0  0  0  0  0  0  0  0  0  0
    6.8868   -0.0000    0.0000 O   0  0  0  0  0  0  0  0  0  0  0  0
  1  2  1  0  0  0  0 
  1  3  1  0  0  0  0 
  2  4  1  0  0  0  0 
  2  5  1  0  0  0  0 
  3  6  1  0  0  0  0 
  5  7  1  0  0  0  0 
  6  8  1  0  0  0  0 
  6  9  2  0  0  0  0 
  7 10  1  0  0  0  0 
  7 11  2  0  0  0  0 
M  CHG  1   6   1
M  CHG  1   7   1
M  CHG  1   8  -1
M  CHG  1  10  -1
M  END
> <Name>
Propane,1,2-dinitrate

> <Source>
DSSTox2DMolFile

> <Tox>
-0.423

> <CAS>
6423-43-4

$$$$

  CDK

  7  6  0  0  0  0  0  0  0  0999 V2000
    0.7407    4.2483    2.2376 C   0  0  0  0  0  0  0  0  0  0  0  0
    1.8736    3.8061    1.3394 C   0  0  0  0  0  0  0  0  0  0  0  0
    2.6046    2.6044    1.9164 C   0  0  0  0  0  0  0  0  0  0  0  0
    3.7402    2.1603    1.0068 C   0  0  0  0  0  0  0  0  0  0  0  0
    4.4380    0.9723    1.5680 C   0  0  0  0  0  0  0  0  0  0  0  0
    5.7431    0.9215    1.8415 C   0  0  0  0  0  0  0  0  0  0  0  0
    6.6921    2.0375    1.6375 C   0  0  0  0  0  0  0  0  0  0  0  0
  1  2  1  0  0  0  0 
  2  3  1  0  0  0  0 
  3  4  1  0  0  0  0 
  4  5  1  0  0  0  0 
  5  6  2  0  0  0  0 
  6  7  1  0  0  0  0 
M  END
> <Name>
2-HEPTENE (CIS)

> <Source>
NIST3DMolFile

> <Tox>
1.686

> <CAS>
6443-92-1

$$$$

  CDK

 14 15  0  0  0  0  0  0  0  0999 V2000
    3.4485    2.0491    0.0000 O   0  0  0  0  0  0  0  0  0  0  0  0
    2.5988    1.5493    0.0000 C   0  0  0  0  0  0  0  0  0  0  0  0
    4.3481    1.4993    0.0000 C   0  0  0  0  0  0  0  0  0  0  0  0
    1.7492    2.0491    0.0000 C   0  0  0  0  0  0  0  0  0  0  0  0
    2.5988    0.4998    0.0000 C   0  0  0  0  0  0  0  0  0  0  0  0
    4.3481    0.4998    0.0000 C   0  0  0  0  0  0  0  0  0  0  0  0
    5.1977    1.9991    0.0000 C   0  0  0  0  0  0  0  0  0  0  0  0
    0.8496    1.5493    0.0000 C   0  0  0  0  0  0  0  0  0  0  0  0
    1.6992    0.0500    0.0000 C   0  0  0  0  0  0  0  0  0  0  0  0
    5.1477    0.0000    0.0000 C   0  0  0  0  0  0  0  0  0  0  0  0
    6.0473    1.4993    0.0000 C   0  0  0  0  0  0  0  0  0  0  0  0
    0.0000    2.0491    0.0000 Cl  0  0  0  0  0  0  0  0  0  0  0  0
    0.8496    0.5997    0.0000 C   0  0  0  0  0  0  0  0  0  0  0  0
    6.0473    0.4998    0.0000 C   0  0  0  0  0  0  0  0  0  0  0  0
  1  2  1  0  0  0  0 
  1  3  1  0  0  0  0 
  4  2  2  0  0  0  0 
  2  5  1  0  0  0  0 
  6  3  2  0  0  0  0 
  3  7  1  0  0  0  0 
  8  4  1  0  0  0  0 
  5  9  2  0  0  0  0 
 10  6  1  0  0  0  0 
  7 11  2  0  0  0  0 
  8 12  1  0  0  0  0 
 13  8  2  0  0  0  0 
  9 13  1  0  0  0  0 
 14 10  2  0  0  0  0 
 11 14  1  0  0  0  0 
M  END
> <Name>
3-Chlorodiphenyl ether

> <Source>
NIST2DMolFile

> <Tox>
-2.425

> <CAS>
6452-49-9

$$$$

  CDK

 11 11  0  0  0  0  0  0  0  0999 V2000
    0.0497    1.7405    0.0000 C   0  0  0  0  0  0  0  0  0  0  0  0
    0.4973    0.8454    0.0000 C   0  0  0  0  0  0  0  0  0  0  0  0
    0.0000    0.0000    0.0000 C   0  0  0  0  0  0  0  0  0  0  0  0
    1.5416    0.8454    0.0000 C   0  0  0  0  0  0  0  0  0  0  0  0
    2.0389    1.7405    0.0000 C   0  0  0  0  0  0  0  0  0  0  0  0
    2.0389    0.0000    0.0000 C   0  0  0  0  0  0  0  0  0  0  0  0
    3.0335    1.7405    0.0000 C   0  0  0  0  0  0  0  0  0  0  0  0
    3.0335    0.0000    0.0000 C   0  0  0  0  0  0  0  0  0  0  0  0
    3.5307    2.5859    0.0000 O   0  0  0  0  0  0  0  0  0  0  0  0
    3.5307    0.8454    0.0000 C   0  0  0  0  0  0  0  0  0  0  0  0
    4.5253    0.8454    0.0000 C   0  0  0  0  0  0  0  0  0  0  0  0
  1  2  1  0  0  0  0 
  2  3  2  0  0  0  0 
  4  2  1  1  0  0  0 
  4  5  1  0  0  0  0 
  6  4  1  0  0  0  0 
  5  7  1  0  0  0  0 
  8  6  1  0  0  0  0 
  7  9  2  0  0  0  0 
  7 10  1  0  0  0  0 
 10  8  2  0  0  0  0 
 10 11  1  0  0  0  0 
M  END
> <Name>
(R)-(-)-CARVONE

> <Source>
NIST2DMolFile

> <Tox>
-0.987

> <CAS>
6485-40-1

$$$$

  CDK

 17 17  0  0  0  0  0  0  0  0999 V2000
    2.3084   -0.6595    0.0000 C   0  0  0  0  0  0  0  0  0  0  0  0
    2.3084   -1.9936    0.0000 C   0  0  0  0  0  0  0  0  0  0  0  0
    1.1542   -0.0000    0.0000 C   0  0  0  0  0  0  0  0  0  0  0  0
    3.4625   -0.0000    0.0000 C   0  0  0  0  0  0  0  0  0  0  0  0
    1.1542   -2.6681    0.0000 C   0  0  0  0  0  0  0  0  0  0  0  0
    0.0000   -0.6595    0.0000 C   0  0  0  0  0  0  0  0  0  0  0  0
    4.6017   -0.6595    0.0000 C   0  0  0  0  0  0  0  0  0  0  0  0
    0.0000   -1.9936    0.0000 C   0  0  0  0  0  0  0  0  0  0  0  0
    5.7559   -0.0000    0.0000 C   0  0  0  0  0  0  0  0  0  0  0  0
    6.9101   -0.6595    0.0000 C   0  0  0  0  0  0  0  0  0  0  0  0
    8.0792   -0.0000    0.0000 C   0  0  0  0  0  0  0  0  0  0  0  0
    9.2334   -0.6595    0.0000 C   0  0  0  0  0  0  0  0  0  0  0  0
   10.3876   -0.0000    0.0000 C   0  0  0  0  0  0  0  0  0  0  0  0
   11.5418   -0.6595    0.0000 C   0  0  0  0  0  0  0  0  0  0  0  0
   12.6959   -0.0000    0.0000 C   0  0  0  0  0  0  0  0  0  0  0  0
   13.8351   -0.6595    0.0000 C   0  0  0  0  0  0  0  0  0  0  0  0
   14.9893   -0.0000    0.0000 C   0  0  0  0  0  0  0  0  0  0  0  0
  1  2  2  0  0  0  0 
  1  3  1  0  0  0  0 
  1  4  1  0  0  0  0 
  2  5  1  0  0  0  0 
  6  3  2  0  0  0  0 
  4  7  1  0  0  0  0 
  5  8  2  0  0  0  0 
  8  6  1  0  0  0  0 
  7  9  1  0  0  0  0 
  9 10  1  0  0  0  0 
 10 11  1  0  0  0  0 
 11 12  1  0  0  0  0 
 12 13  1  0  0  0  0 
 13 14  1  0  0  0  0 
 14 15  1  0  0  0  0 
 15 16  1  0  0  0  0 
 16 17  1  0  0  0  0 
M  END
> <Name>
1-PHENYLUNDECANE

> <Source>
DSSTox2DMolFile

> <Tox>
-3.616

> <CAS>
6742-54-7

$$$$

  CDK

 17 16  0  0  0  0  0  0  0  0999 V2000
    6.0848    0.8798    5.6217 C   0  0  0  0  0  0  0  0  0  0  0  0
    4.9009    1.0058    6.5705 C   0  0  0  0  0  0  0  0  0  0  0  0
    6.8172    2.2019    5.4309 C   0  0  0  0  0  0  0  0  0  0  0  0
    3.8046    1.8719    5.9667 C   0  0  0  0  0  0  0  0  0  0  0  0
    7.8162    2.4746    6.5425 C   0  0  0  0  0  0  0  0  0  0  0  0
    3.1574    1.1903    4.7715 C   0  0  0  0  0  0  0  0  0  0  0  0
    8.9332    1.4409    6.5614 C   0  0  0  0  0  0  0  0  0  0  0  0
    2.2140    2.1252    4.0379 C   0  0  0  0  0  0  0  0  0  0  0  0
    9.9388    1.7224    7.6655 C   0  0  0  0  0  0  0  0  0  0  0  0
    1.5610    1.4420    2.8458 C   0  0  0  0  0  0  0  0  0  0  0  0
   10.6785    3.0283    7.4157 C   0  0  0  0  0  0  0  0  0  0  0  0
    0.7570    2.4269    2.0104 C   0  0  0  0  0  0  0  0  0  0  0  0
   11.5266    3.4323    8.6092 C   0  0  0  0  0  0  0  0  0  0  0  0
    1.6576    3.4671    1.3581 C   0  0  0  0  0  0  0  0  0  0  0  0
   12.2732    4.7208    8.3471 C   0  0  0  0  0  0  0  0  0  0  0  0
    0.8608    4.5206    0.6750 C   0  0  0  0  0  0  0  0  0  0  0  0
    1.0733    5.8194    0.8499 C   0  0  0  0  0  0  0  0  0  0  0  0
  1  2  1  0  0  0  0 
  1  3  1  0  0  0  0 
  2  4  1  0  0  0  0 
  3  5  1  0  0  0  0 
  4  6  1  0  0  0  0 
  5  7  1  0  0  0  0 
  6  8  1  0  0  0  0 
  7  9  1  0  0  0  0 
  8 10  1  0  0  0  0 
  9 11  1  0  0  0  0 
 10 12  1  0  0  0  0 
 11 13  1  0  0  0  0 
 12 14  1  0  0  0  0 
 13 15  1  0  0  0  0 
 14 16  1  0  0  0  0 
 16 17  2  0  0  0  0 
M  END
> <Name>
1-HEPTADECENE

> <Source>
NIST3DMolFile

> <Tox>
-3.343

> <CAS>
6765-39-5

$$$$

  CDK

  6  5  0  0  0  0  0  0  0  0999 V2000
    2.5838    1.4906    0.0000 C   0  0  0  0  0  0  0  0  0  0  0  0
    1.7391    0.9938    0.0000 C   0  0  0  0  0  0  0  0  0  0  0  0
    3.4781    0.9938    0.0000 C   0  0  0  0  0  0  0  0  0  0  0  0
    0.8944    1.4906    0.0000 O   0  0  0  0  0  0  0  0  0  0  0  0
    1.7391    0.0000    0.0000 C   0  0  0  0  0  0  0  0  0  0  0  0
    0.0000    0.9938    0.0000 C   0  0  0  0  0  0  0  0  0  0  0  0
  1  2  1  0  0  0  0 
  1  3  1  0  0  0  0 
  2  4  1  0  0  0  0 
  2  5  1  0  0  0  0 
  4  6  1  0  0  0  0 
M  END
> <Name>
SEC-BUTYL METHYL ETHER

> <Source>
NIST2DMolFile

> <Tox>
2.318

> <CAS>
6795-87-5

$$$$

  CDK

 15 16  0  0  0  0  0  0  0  0999 V2000
    1.4241   -0.8429    0.0000 C   0  0  0  0  0  0  0  0  0  0  0  0
    2.1386   -0.4304    0.0000 C   0  0  0  0  0  0  0  0  0  0  0  0
    0.7097   -0.4304    0.0000 C   0  0  0  0  0  0  0  0  0  0  0  0
    2.1386    0.3946    0.0000 C   0  0  0  0  0  0  0  0  0  0  0  0
    0.7097    0.3946    0.0000 C   0  0  0  0  0  0  0  0  0  0  0  0
   -0.0048   -0.8429    0.0000 O   0  0  0  0  0  0  0  0  0  0  0  0
    1.4241    0.8071    0.0000 C   0  0  0  0  0  0  0  0  0  0  0  0
   -0.7193   -0.4304    0.0000 C   0  0  0  0  0  0  0  0  0  0  0  0
    1.4241    1.6321    0.0000 Cl  0  0  0  0  0  0  0  0  0  0  0  0
   -0.7193    0.3946    0.0000 C   0  0  0  0  0  0  0  0  0  0  0  0
   -1.4337   -0.8429    0.0000 C   0  0  0  0  0  0  0  0  0  0  0  0
   -1.4337    0.8071    0.0000 C   0  0  0  0  0  0  0  0  0  0  0  0
   -2.1482   -0.4304    0.0000 C   0  0  0  0  0  0  0  0  0  0  0  0
   -2.1482    0.3946    0.0000 C   0  0  0  0  0  0  0  0  0  0  0  0
   -2.8627    0.8071    0.0000 Cl  0  0  0  0  0  0  0  0  0  0  0  0
  1  2  1  0  0  0  0 
  1  3  2  0  0  0  0 
  2  4  2  0  0  0  0 
  5  3  1  0  0  0  0 
  3  6  1  0  0  0  0 
  4  7  1  0  0  0  0 
  7  5  2  0  0  0  0 
  6  8  1  0  0  0  0 
  7  9  1  0  0  0  0 
  8 10  1  0  0  0  0 
  8 11  2  0  0  0  0 
 10 12  2  0  0  0  0 
 13 11  1  0  0  0  0 
 12 14  1  0  0  0  0 
 14 13  2  0  0  0  0 
 14 15  1  0  0  0  0 
M  END
> <Name>
3,4'-Dichlorodiphenyl ether

> <Source>
Smiles

> <Tox>
-3.185

> <CAS>
6842-62-2

$$$$

  CDK

  9  8  0  0  0  0  0  0  0  0999 V2000
    0.0000   -0.0000    0.0000 C   0  0  0  0  0  0  0  0  0  0  0  0
    1.1569   -0.6577    0.0000 C   0  0  0  0  0  0  0  0  0  0  0  0
    2.2998   -0.0000    0.0000 C   0  0  0  0  0  0  0  0  0  0  0  0
    1.1569   -1.9966    0.0000 O   0  0  0  0  0  0  0  0  0  0  0  0
    3.4567   -0.6577    0.0000 C   0  0  0  0  0  0  0  0  0  0  0  0
    2.2998   -2.6683    0.0000 C   0  0  0  0  0  0  0  0  0  0  0  0
    3.4567   -1.9966    0.0000 C   0  0  0  0  0  0  0  0  0  0  0  0
    2.2998   -4.0071    0.0000 C   0  0  0  0  0  0  0  0  0  0  0  0
    1.1569   -4.6649    0.0000 C   0  0  0  0  0  0  0  0  0  0  0  0
  1  2  1  0  0  0  0 
  2  3  1  0  0  0  0 
  2  4  1  0  0  0  0 
  3  5  1  0  0  0  0 
  6  4  1  0  0  0  0 
  7  6  1  0  0  0  0 
  6  8  1  0  0  0  0 
  8  9  1  0  0  0  0 
M  END
> <Name>
DI (SEC-BUTYL) ETHER

> <Source>
DSSTox2DMolFile

> <Tox>
1.212

> <CAS>
6863-58-7

$$$$

  CDK

  8  8  0  0  0  0  0  0  0  0999 V2000
    2.9265    2.3323    0.9548 C   0  0  0  0  0  0  0  0  0  0  0  0
    1.6683    1.4848    0.8739 C   0  0  0  0  0  0  0  0  0  0  0  0
    3.8300    1.8844    2.1039 C   0  0  0  0  0  0  0  0  0  0  0  0
    0.9052    1.5309    2.1872 C   0  0  0  0  0  0  0  0  0  0  0  0
    3.0605    1.9079    3.4367 C   0  0  0  0  0  0  0  0  0  0  0  0
    5.0594    2.7768    2.1709 C   0  0  0  0  0  0  0  0  0  0  0  0
    1.7865    1.0691    3.3353 C   0  0  0  0  0  0  0  0  0  0  0  0
    3.9285    1.3913    4.5734 C   0  0  0  0  0  0  0  0  0  0  0  0
  2  1  1  0  0  0  0 
  1  3  1  0  0  0  0 
  2  4  1  0  0  0  0 
  5  3  1  0  0  0  0 
  3  6  1  0  0  0  0 
  7  4  1  0  0  0  0 
  5  7  1  0  0  0  0 
  5  8  1  0  0  0  0 
M  END
> <Name>
1,2-DIMETHYLCYCLOHEXANE (TRANS)

> <Source>
NIST3DMolFile

> <Tox>
1.288

> <CAS>
6876-23-9

$$$$

  CDK

 15 16  0  0  0  0  0  0  0  0999 V2000
   -1.4421   -1.6990    0.0000 Cl  0  0  0  0  0  0  0  0  0  0  0  0
   -1.4421   -0.8740    0.0000 C   0  0  0  0  0  0  0  0  0  0  0  0
   -0.7276   -0.4615    0.0000 C   0  0  0  0  0  0  0  0  0  0  0  0
   -2.1565   -0.4615    0.0000 C   0  0  0  0  0  0  0  0  0  0  0  0
   -0.7276    0.3635    0.0000 C   0  0  0  0  0  0  0  0  0  0  0  0
   -0.0131   -0.8740    0.0000 O   0  0  0  0  0  0  0  0  0  0  0  0
   -2.1565    0.3635    0.0000 C   0  0  0  0  0  0  0  0  0  0  0  0
   -1.4421    0.7760    0.0000 C   0  0  0  0  0  0  0  0  0  0  0  0
    0.7013   -0.4615    0.0000 C   0  0  0  0  0  0  0  0  0  0  0  0
    1.4158   -0.8740    0.0000 C   0  0  0  0  0  0  0  0  0  0  0  0
    0.7013    0.3635    0.0000 C   0  0  0  0  0  0  0  0  0  0  0  0
    2.1303   -0.4615    0.0000 C   0  0  0  0  0  0  0  0  0  0  0  0
    1.4158    0.7760    0.0000 C   0  0  0  0  0  0  0  0  0  0  0  0
    2.1303    0.3635    0.0000 C   0  0  0  0  0  0  0  0  0  0  0  0
    2.8448    0.7760    0.0000 Cl  0  0  0  0  0  0  0  0  0  0  0  0
  1  2  1  0  0  0  0 
  2  3  1  0  0  0  0 
  2  4  2  0  0  0  0 
  3  5  2  0  0  0  0 
  3  6  1  0  0  0  0 
  7  4  1  0  0  0  0 
  5  8  1  0  0  0  0 
  6  9  1  0  0  0  0 
  8  7  2  0  0  0  0 
  9 10  1  0  0  0  0 
  9 11  2  0  0  0  0 
 10 12  2  0  0  0  0 
 13 11  1  0  0  0  0 
 12 14  1  0  0  0  0 
 14 13  2  0  0  0  0 
 14 15  1  0  0  0  0 
M  END
> <Name>
2,4'-DICHLORODIPHENYL ETHER

> <Source>
Smiles

> <Tox>
-3.155

> <CAS>
6903-65-7

$$$$

  CDK

  9  8  0  0  0  0  0  0  0  0999 V2000
    1.1354   -1.3486    0.0000 C   0  0  0  0  0  0  0  0  0  0  0  0
    2.2823   -1.9941    0.0000 C   0  0  0  0  0  0  0  0  0  0  0  0
    0.0000   -1.9941    0.0000 O   0  0  0  0  0  0  0  0  0  0  0  0
    1.1354   -0.0000    0.0000 O   0  0  0  0  0  0  0  0  0  0  0  0
    3.4638   -1.3486    0.0000 C   0  0  0  0  0  0  0  0  0  0  0  0
    2.2823   -3.3370    0.0000 O   0  0  0  0  0  0  0  0  0  0  0  0
    4.6165   -1.9941    0.0000 C   0  0  0  0  0  0  0  0  0  0  0  0
    5.7634   -1.3486    0.0000 O   0  0  0  0  0  0  0  0  0  0  0  0
    4.6165   -3.3370    0.0000 O   0  0  0  0  0  0  0  0  0  0  0  0
  1  2  1  0  0  0  0 
  1  3  1  0  0  0  0 
  1  4  2  0  0  0  0 
  2  5  1  0  0  0  0 
  2  6  1  0  0  0  0 
  5  7  1  0  0  0  0 
  7  8  1  0  0  0  0 
  7  9  2  0  0  0  0 
M  END
> <Name>
MALIC ACID

> <Source>
DSSTox2DMolFile

> <Tox>
-7.484

> <CAS>
6915-15-7

$$$$

  CDK

 11 10  0  0  0  0  0  0  0  0999 V2000
    1.4517    3.0429    2.5137 C   0  0  0  0  0  0  0  0  0  0  0  0
    1.0784    3.7918    3.7863 C   0  0  0  0  0  0  0  0  0  0  0  0
    2.9512    3.0046    2.2740 C   0  0  0  0  0  0  0  0  0  0  0  0
    1.3425    3.0000    5.0604 C   0  0  0  0  0  0  0  0  0  0  0  0
    3.3156    2.1339    1.0816 C   0  0  0  0  0  0  0  0  0  0  0  0
    2.7348    3.2364    5.6298 C   0  0  0  0  0  0  0  0  0  0  0  0
    4.8013    1.7665    1.0368 C   0  0  0  0  0  0  0  0  0  0  0  0
    3.0913    2.1990    6.6838 C   0  0  0  0  0  0  0  0  0  0  0  0
    5.6803    2.9944    0.8684 C   0  0  0  0  0  0  0  0  0  0  0  0
    5.2033    0.9830    2.2768 C   0  0  0  0  0  0  0  0  0  0  0  0
    3.2046    0.8169    6.0773 C   0  0  0  0  0  0  0  0  0  0  0  0
  1  2  1  0  0  0  0 
  1  3  1  0  0  0  0 
  2  4  1  0  0  0  0 
  3  5  1  0  0  0  0 
  4  6  1  0  0  0  0 
  5  7  1  0  0  0  0 
  6  8  1  0  0  0  0 
  7  9  1  0  0  0  0 
  7 10  1  0  0  0  0 
  8 11  1  0  0  0  0 
M  END
> <Name>
2-METHYLDECANE

> <Source>
NIST3DMolFile

> <Tox>
-0.220

> <CAS>
6975-98-0

$$$$

  CDK

 26 27  0  0  0  0  0  0  0  0999 V2000
    8.9653    1.3169    0.0000 C   0  0  0  0  0  0  0  0  0  0  0  0
    8.9653    2.1780    0.0000 C   0  0  0  0  0  0  0  0  0  0  0  0
    9.7251    0.8611    0.0000 C   0  0  0  0  0  0  0  0  0  0  0  0
    7.2432    0.2533    0.0000 O   0  0  0  0  0  0  0  0  0  0  0  0
    9.7251    2.6339    0.0000 C   0  0  0  0  0  0  0  0  0  0  0  0
    8.2055    2.6339    0.0000 O   0  0  0  0  0  0  0  0  0  0  0  0
   10.4849    1.3169    0.0000 C   0  0  0  0  0  0  0  0  0  0  0  0
    9.7251    0.0000    0.0000 O   0  0  0  0  0  0  0  0  0  0  0  0
    5.3184    1.3169    0.0000 C   0  0  0  0  0  0  0  0  0  0  0  0
   10.4849    2.1780    0.0000 C   0  0  0  0  0  0  0  0  0  0  0  0
    9.7251    3.4950    0.0000 O   0  0  0  0  0  0  0  0  0  0  0  0
   11.2953    0.8611    0.0000 O   0  0  0  0  0  0  0  0  0  0  0  0
    4.5080    0.9624    0.0000 O   0  0  0  0  0  0  0  0  0  0  0  0
    5.3184    2.1780    0.0000 C   0  0  0  0  0  0  0  0  0  0  0  0
   11.2953    2.6339    0.0000 O   0  0  0  0  0  0  0  0  0  0  0  0
    3.7482    1.3169    0.0000 C   0  0  0  0  0  0  0  0  0  0  0  0
    4.5080    2.5832    0.0000 C   0  0  0  0  0  0  0  0  0  0  0  0
    6.0275    2.5832    0.0000 N   0  0  0  0  0  0  0  0  0  0  0  0
    3.7482    2.1780    0.0000 C   0  0  0  0  0  0  0  0  0  0  0  0
    2.9378    0.7598    0.0000 C   0  0  0  0  0  0  0  0  0  0  0  0
    2.9378    2.5832    0.0000 N   0  0  0  0  0  0  0  0  0  0  0  0
    2.0261    2.1780    0.0000 C   0  0  0  0  0  0  0  0  0  0  0  0
    1.0637    2.5832    0.0000 C   0  0  0  0  0  0  0  0  0  0  0  0
    2.0261    1.2663    0.0000 N   0  0  0  0  0  0  0  0  0  0  0  0
    0.0000    2.1274    0.0000 O   0  0  0  0  0  0  0  0  0  0  0  0
    1.0637    3.5963    0.0000 O   0  0  0  0  0  0  0  0  0  0  0  0
  1  2  1  0  0  0  0 
  3  1  1  0  0  0  0 
  1  4  1  0  0  0  0 
  2  5  1  0  0  0  0 
  2  6  1  0  0  0  0 
  7  3  1  0  0  0  0 
  3  8  1  0  0  0  0 
  4  9  1  0  0  0  0 
  5 10  1  0  0  0  0 
  5 11  1  0  0  0  0 
 10  7  1  0  0  0  0 
  7 12  1  0  0  0  0 
  9 13  1  0  0  0  0 
 14  9  1  0  0  0  0 
 10 15  1  0  0  0  0 
 13 16  1  0  0  0  0 
 17 14  1  0  0  0  0 
 14 18  1  0  0  0  0 
 16 19  1  0  0  0  0 
 16 20  1  0  0  0  0 
 19 17  1  0  0  0  0 
 19 21  1  0  0  0  0 
 21 22  1  0  0  0  0 
 23 22  1  0  0  0  0 
 22 24  2  0  0  0  0 
 25 23  1  0  0  0  0 
 23 26  2  0  0  0  0 
M  END
> <Name>
Kasugamycin

> <Source>
NIST2DMolFile

> <Tox>
-7.000

> <CAS>
6980-18-3

$$$$

  CDK

  6  5  0  0  0  0  0  0  0  0999 V2000
    0.0000    1.0012    0.0000 C   0  0  0  0  0  0  0  0  0  0  0  0
    0.8647    1.5019    0.0000 C   0  0  0  0  0  0  0  0  0  0  0  0
    0.8647    2.5031    0.0000 O   0  0  0  0  0  0  0  0  0  0  0  0
    1.7294    1.0012    0.0000 C   0  0  0  0  0  0  0  0  0  0  0  0
    2.5941    1.5019    0.0000 C   0  0  0  0  0  0  0  0  0  0  0  0
    1.7294    0.0000    0.0000 O   0  0  0  0  0  0  0  0  0  0  0  0
  1  2  1  0  0  0  0 
  2  3  1  0  0  0  0 
  2  4  1  0  0  0  0 
  4  5  1  0  0  0  0 
  4  6  1  0  0  0  0 
M  END
> <Name>
DL-2,3-BUTANDIOL

> <Source>
NIST2DMolFile

> <Tox>
-0.740

> <CAS>
6982-25-8

$$$$

  CDK

 16 17  0  0  0  0  0  0  0  0999 V2000
    0.2028   -1.1060   -0.3579 C   0  0  0  0  0  0  0  0  0  0  0  0
   -1.0649   -0.4989   -0.3465 C   0  0  0  0  0  0  0  0  0  0  0  0
    0.3687   -2.4565   -0.0351 C   0  0  0  0  0  0  0  0  0  0  0  0
    1.2869   -0.3654   -0.8264 O   0  0  0  0  0  0  0  0  0  0  0  0
   -2.1639   -1.2864   -0.0040 C   0  0  0  0  0  0  0  0  0  0  0  0
   -1.2204    0.9596   -0.7404 C   0  0  0  0  0  0  0  0  0  0  0  0
   -0.7451   -3.2137    0.3058 C   0  0  0  0  0  0  0  0  0  0  0  0
    2.2966   -0.0556    0.0568 C   0  0  0  0  0  0  0  0  0  0  0  0
   -2.0067   -2.6297    0.3191 C   0  0  0  0  0  0  0  0  0  0  0  0
   -0.6026    1.8450    0.1856 O   0  0  0  0  0  0  0  0  0  0  0  0
   -2.5637    1.4084   -0.8266 O   0  0  0  0  0  0  0  0  0  0  0  0
    3.2894    0.6778   -0.6321 N   0  0  0  0  0  0  0  0  0  0  0  0
    2.3283   -0.4337    1.2143 O   0  0  0  0  0  0  0  0  0  0  0  0
   -1.5875    2.3483    1.0821 C   0  0  0  0  0  0  0  0  0  0  0  0
   -2.9212    2.0680    0.3856 C   0  0  0  0  0  0  0  0  0  0  0  0
    4.3334    1.3684    0.1389 C   0  0  0  0  0  0  0  0  0  0  0  0
  1  2  1  0  0  0  0 
  1  3  2  0  0  0  0 
  1  4  1  0  0  0  0 
  2  5  2  0  0  0  0 
  2  6  1  0  0  0  0 
  7  3  1  0  0  0  0 
  8  4  1  0  0  0  0 
  5  9  1  0  0  0  0 
 10  6  1  0  0  0  0 
  6 11  1  0  0  0  0 
  9  7  2  0  0  0  0 
  8 12  1  0  0  0  0 
  8 13  2  0  0  0  0 
 10 14  1  0  0  0  0 
 11 15  1  0  0  0  0 
 12 16  1  0  0  0  0 
 15 14  1  0  0  0  0 
M  END
> <Name>
DIOXACARB

> <Source>
DougDB3DMolFile

> <Tox>
-6.523

> <CAS>
6988-21-2

$$$$

  CDK

 14 15  0  0  0  0  0  0  0  0999 V2000
    0.0000    0.0000    0.0000 C   0  0  0  0  0  0  0  0  0  0  0  0
    0.6400    1.1400    0.0400 O   0  0  0  0  0  0  0  0  0  0  0  0
    0.2000   -0.9000   -1.0400 C   0  0  0  0  0  0  0  0  0  0  0  0
   -0.9000   -0.3400    1.0400 C   0  0  0  0  0  0  0  0  0  0  0  0
    1.7400    1.2600   -0.7000 C   0  0  0  0  0  0  0  0  0  0  0  0
   -0.4800   -2.1400   -1.0600 C   0  0  0  0  0  0  0  0  0  0  0  0
   -1.5800   -1.5600    1.0200 C   0  0  0  0  0  0  0  0  0  0  0  0
    2.7400    0.2800   -0.6400 C   0  0  0  0  0  0  0  0  0  0  0  0
    1.9000    2.3600   -1.5600 C   0  0  0  0  0  0  0  0  0  0  0  0
   -1.3800   -2.4600   -0.0400 C   0  0  0  0  0  0  0  0  0  0  0  0
    3.9000    0.4000   -1.4200 C   0  0  0  0  0  0  0  0  0  0  0  0
    3.0400    2.4800   -2.3400 C   0  0  0  0  0  0  0  0  0  0  0  0
    4.0600    1.5000   -2.2800 C   0  0  0  0  0  0  0  0  0  0  0  0
    5.4600    1.6600   -3.2400 Cl  0  0  0  0  0  0  0  0  0  0  0  0
  1  2  1  0  0  0  0 
  1  3  2  0  0  0  0 
  1  4  1  0  0  0  0 
  2  5  1  0  0  0  0 
  3  6  1  0  0  0  0 
  7  4  2  0  0  0  0 
  5  8  2  0  0  0  0 
  5  9  1  0  0  0  0 
  6 10  2  0  0  0  0 
 10  7  1  0  0  0  0 
  8 11  1  0  0  0  0 
  9 12  2  0  0  0  0 
 11 13  2  0  0  0  0 
 13 12  1  0  0  0  0 
 13 14  1  0  0  0  0 
M  END
> <Name>
4-CHLOROPHENYL PHENYL ETHER

> <Source>
NIH3DMolFile

> <Tox>
-2.569

> <CAS>
7005-72-3

$$$$

  CDK

 15 16  0  0  0  0  0  0  0  0999 V2000
    8.4544    0.0000    0.0000 Cl  0  0  0  0  0  0  0  0  0  0  0  0
    7.2467    0.7080    0.0000 C   0  0  0  0  0  0  0  0  0  0  0  0
    6.0389    0.0000    0.0000 C   0  0  0  0  0  0  0  0  0  0  0  0
    7.2467    2.0824    0.0000 C   0  0  0  0  0  0  0  0  0  0  0  0
    4.8311    0.7080    0.0000 C   0  0  0  0  0  0  0  0  0  0  0  0
    6.0389    2.7904    0.0000 C   0  0  0  0  0  0  0  0  0  0  0  0
    4.8311    2.0824    0.0000 C   0  0  0  0  0  0  0  0  0  0  0  0
    3.6233    2.7904    0.0000 C   0  0  0  0  0  0  0  0  0  0  0  0
    2.4156    2.0824    0.0000 C   0  0  0  0  0  0  0  0  0  0  0  0
    3.6233    4.2064    0.0000 C   0  0  0  0  0  0  0  0  0  0  0  0
    1.2078    2.7904    0.0000 C   0  0  0  0  0  0  0  0  0  0  0  0
    2.4156    4.8728    0.0000 C   0  0  0  0  0  0  0  0  0  0  0  0
    4.8311    4.8728    0.0000 Cl  0  0  0  0  0  0  0  0  0  0  0  0
    1.2078    4.2064    0.0000 C   0  0  0  0  0  0  0  0  0  0  0  0
    0.0000    4.8728    0.0000 Cl  0  0  0  0  0  0  0  0  0  0  0  0
  1  2  1  0  0  0  0 
  2  3  2  0  0  0  0 
  2  4  1  0  0  0  0 
  3  5  1  0  0  0  0 
  6  4  2  0  0  0  0 
  5  7  2  0  0  0  0 
  7  6  1  0  0  0  0 
  7  8  1  0  0  0  0 
  8  9  2  0  0  0  0 
  8 10  1  0  0  0  0 
  9 11  1  0  0  0  0 
 12 10  2  0  0  0  0 
 10 13  1  0  0  0  0 
 11 14  2  0  0  0  0 
 14 12  1  0  0  0  0 
 14 15  1  0  0  0  0 
M  END
> <Name>
2,4,4'-TRICHLOROBIPHENYL

> <Source>
IndexNet2DMolFile

> <Tox>
-3.710

> <CAS>
7012-37-5

$$$$

  CDK

 10 10  0  0  0  0  0  0  0  0999 V2000
    1.9946    2.6195    3.1799 C   0  0  0  0  0  0  0  0  0  0  0  0
    2.7658    2.0707    1.9774 C   0  0  0  0  0  0  0  0  0  0  0  0
    0.5328    2.8521    2.8676 C   0  0  0  0  0  0  0  0  0  0  0  0
    2.4323    0.6081    1.7240 C   0  0  0  0  0  0  0  0  0  0  0  0
    4.2828    2.2952    2.1368 C   0  0  0  0  0  0  0  0  0  0  0  0
    5.0000    1.9396    0.8314 C   0  0  0  0  0  0  0  0  0  0  0  0
    4.8846    1.5059    3.2996 C   0  0  0  0  0  0  0  0  0  0  0  0
    6.5007    2.1475    0.9436 C   0  0  0  0  0  0  0  0  0  0  0  0
    6.3814    1.7461    3.4094 C   0  0  0  0  0  0  0  0  0  0  0  0
    7.0839    1.3733    2.1142 C   0  0  0  0  0  0  0  0  0  0  0  0
  1  2  1  0  0  0  0 
  1  3  1  0  0  0  0 
  2  4  1  0  0  0  0 
  2  5  1  0  0  0  0 
  6  5  1  0  0  0  0 
  7  5  1  0  0  0  0 
  6  8  1  0  0  0  0 
  9  7  1  0  0  0  0 
  8 10  1  0  0  0  0 
  9 10  1  0  0  0  0 
M  END
> <Name>
S-BUTYLCYCLOHEXANE

> <Source>
NIST3DMolFile

> <Tox>
0.371

> <CAS>
7058-01-7

$$$$

  CDK

 18 17  0  0  0  0  0  0  0  0999 V2000
   -8.3395   -0.6189   -0.0889 O   0  0  0  0  0  0  0  0  0  0  0  0
   -7.2467    0.1957   -0.0457 C   0  0  0  0  0  0  0  0  0  0  0  0
   -9.6021    0.0491   -0.1733 C   0  0  0  0  0  0  0  0  0  0  0  0
   -7.2557    1.4196   -0.0722 O   0  0  0  0  0  0  0  0  0  0  0  0
   -5.9880   -0.6308    0.0410 C   0  0  0  0  0  0  0  0  0  0  0  0
   -4.7242    0.2245    0.0451 C   0  0  0  0  0  0  0  0  0  0  0  0
   -3.4094   -0.5644    0.0544 C   0  0  0  0  0  0  0  0  0  0  0  0
   -2.1278    0.2721    0.1157 C   0  0  0  0  0  0  0  0  0  0  0  0
   -0.8501   -0.5688    0.0995 C   0  0  0  0  0  0  0  0  0  0  0  0
    0.3969    0.3179    0.1303 C   0  0  0  0  0  0  0  0  0  0  0  0
    1.6764   -0.5200    0.0801 C   0  0  0  0  0  0  0  0  0  0  0  0
    2.9210    0.3699    0.0778 C   0  0  0  0  0  0  0  0  0  0  0  0
    4.2329   -0.4168   -0.0038 C   0  0  0  0  0  0  0  0  0  0  0  0
    5.5162    0.4175    0.0754 C   0  0  0  0  0  0  0  0  0  0  0  0
    6.7909   -0.4177   -0.0674 C   0  0  0  0  0  0  0  0  0  0  0  0
    8.0736    0.4153    0.0193 C   0  0  0  0  0  0  0  0  0  0  0  0
    9.3454   -0.4060   -0.1974 C   0  0  0  0  0  0  0  0  0  0  0  0
   10.5902    0.4615   -0.0899 C   0  0  0  0  0  0  0  0  0  0  0  0
  1  2  1  0  0  0  0 
  1  3  1  0  0  0  0 
  4  2  2  0  0  0  0 
  5  2  1  0  0  0  0 
  6  5  1  0  0  0  0 
  7  6  1  0  0  0  0 
  8  7  1  0  0  0  0 
  9  8  1  0  0  0  0 
 10  9  1  0  0  0  0 
 11 10  1  0  0  0  0 
 11 12  1  0  0  0  0 
 12 13  1  0  0  0  0 
 13 14  1  0  0  0  0 
 14 15  1  0  0  0  0 
 15 16  1  0  0  0  0 
 16 17  1  0  0  0  0 
 17 18  1  0  0  0  0 
M  END
> <Name>
METHYL PENTADECANOATE

> <Source>
Chemidplus3DMolFile

> <Tox>
-3.788

> <CAS>
7132-64-1

$$$$

  CDK

  8  7  0  0  0  0  0  0  0  0999 V2000
    4.0051    3.0385    3.1426 C   0  0  0  0  0  0  0  0  0  0  0  0
    2.9912    2.8476    2.0559 C   0  0  0  0  0  0  0  0  0  0  0  0
    5.4151    2.6983    2.6758 C   0  0  0  0  0  0  0  0  0  0  0  0
    1.9862    1.9549    2.1306 C   0  0  0  0  0  0  0  0  0  0  0  0
    3.1848    3.7482    0.8861 C   0  0  0  0  0  0  0  0  0  0  0  0
    5.6520    1.2073    2.6009 C   0  0  0  0  0  0  0  0  0  0  0  0
    1.7792    1.0474    3.2916 C   0  0  0  0  0  0  0  0  0  0  0  0
    0.9733    1.7895    1.0521 C   0  0  0  0  0  0  0  0  0  0  0  0
  1  2  1  0  0  0  0 
  1  3  1  0  0  0  0 
  2  4  2  0  0  0  0 
  2  5  1  0  0  0  0 
  3  6  1  0  0  0  0 
  4  7  1  0  0  0  0 
  4  8  1  0  0  0  0 
M  END
> <Name>
2,3-DIMETHYL-2-HEXENE

> <Source>
NIST3DMolFile

> <Tox>
1.262

> <CAS>
7145-20-2

$$$$

  CDK

  9  8  0  0  0  0  0  0  0  0999 V2000
    1.9760    2.1810    2.4401 C   0  0  0  0  0  0  0  0  0  0  0  0
    2.8857    3.4230    2.1297 C   0  0  0  0  0  0  0  0  0  0  0  0
    1.5382    2.1878    3.9069 C   0  0  0  0  0  0  0  0  0  0  0  0
    0.7215    2.1944    1.5645 C   0  0  0  0  0  0  0  0  0  0  0  0
    2.7497    0.8896    2.1631 C   0  0  0  0  0  0  0  0  0  0  0  0
    4.1469    3.3551    3.0168 C   0  0  0  0  0  0  0  0  0  0  0  0
    3.3019    3.4103    0.6559 C   0  0  0  0  0  0  0  0  0  0  0  0
    2.1263    4.7208    2.4109 C   0  0  0  0  0  0  0  0  0  0  0  0
    5.1147    4.4962    2.8049 C   0  0  0  0  0  0  0  0  0  0  0  0
  1  2  1  0  0  0  0 
  1  3  1  0  0  0  0 
  1  4  1  0  0  0  0 
  1  5  1  0  0  0  0 
  2  6  1  0  0  0  0 
  2  7  1  0  0  0  0 
  2  8  1  0  0  0  0 
  6  9  1  0  0  0  0 
M  END
> <Name>
2,2,3,3-TETRAMETHYLPENTANE

> <Source>
NIST3DMolFile

> <Tox>
0.975

> <CAS>
7154-79-2

$$$$

  CDK

 19 19  0  0  0  0  0  0  0  0999 V2000
    9.4123    9.0375    0.0000 C   0  0  0  0  0  0  0  0  0  0  0  0
    9.4123    7.6631    0.0000 C   0  0  0  0  0  0  0  0  0  0  0  0
    8.2046    6.9551    0.0000 C   0  0  0  0  0  0  0  0  0  0  0  0
    8.2046    5.5808    0.0000 O   0  0  0  0  0  0  0  0  0  0  0  0
    6.9551    4.8728    0.0000 P   0  0  0  0  0  0  0  0  0  0  0  0
    5.7474    4.1647    0.0000 O   0  0  0  0  0  0  0  0  0  0  0  0
    7.6631    3.6650    0.0000 O   0  0  0  0  0  0  0  0  0  0  0  0
    6.2888    6.0805    0.0000 O   0  0  0  0  0  0  0  0  0  0  0  0
    6.9551    2.4572    0.0000 C   0  0  0  0  0  0  0  0  0  0  0  0
    4.8728    6.0805    0.0000 C   0  0  0  0  0  0  0  0  0  0  0  0
    7.6631    1.2078    0.0000 C   0  0  0  0  0  0  0  0  0  0  0  0
    4.1647    4.8728    0.0000 C   0  0  0  0  0  0  0  0  0  0  0  0
    4.1647    7.2883    0.0000 C   0  0  0  0  0  0  0  0  0  0  0  0
    6.9551    0.0000    0.0000 C   0  0  0  0  0  0  0  0  0  0  0  0
    2.7904    4.8728    0.0000 C   0  0  0  0  0  0  0  0  0  0  0  0
    2.7904    7.2883    0.0000 C   0  0  0  0  0  0  0  0  0  0  0  0
    2.0824    6.0805    0.0000 C   0  0  0  0  0  0  0  0  0  0  0  0
    0.6664    6.0805    0.0000 S   0  0  0  0  0  0  0  0  0  0  0  0
    0.0000    7.2883    0.0000 C   0  0  0  0  0  0  0  0  0  0  0  0
  1  2  1  0  0  0  0 
  2  3  1  0  0  0  0 
  3  4  1  0  0  0  0 
  4  5  1  0  0  0  0 
  5  6  2  0  0  0  0 
  5  7  1  0  0  0  0 
  5  8  1  0  0  0  0 
  7  9  1  0  0  0  0 
  8 10  1  0  0  0  0 
  9 11  1  0  0  0  0 
 10 12  1  0  0  0  0 
 10 13  2  0  0  0  0 
 11 14  1  0  0  0  0 
 12 15  2  0  0  0  0 
 16 13  1  0  0  0  0 
 15 17  1  0  0  0  0 
 17 16  2  0  0  0  0 
 17 18  1  0  0  0  0 
 18 19  1  0  0  0  0 
M  END
> <Name>
PROPAPHOS

> <Source>
IndexNet2DMolFile

> <Tox>
-6.046

> <CAS>
7292-16-2

$$$$

  CDK

  7  6  0  0  0  0  0  0  0  0999 V2000
    0.0000    0.4496    0.0000 N   0  0  0  0  0  0  0  0  0  0  0  0
    0.9992    0.6994    0.0000 C   0  0  0  0  0  0  0  0  0  0  0  0
    1.9484    0.9492    0.0000 C   0  0  0  0  0  0  0  0  0  0  0  0
    1.6986    1.9484    0.0000 C   0  0  0  0  0  0  0  0  0  0  0  0
    2.8977    1.1990    0.0000 C   0  0  0  0  0  0  0  0  0  0  0  0
    2.1982    0.0000    0.0000 C   0  0  0  0  0  0  0  0  0  0  0  0
    3.8469    1.4988    0.0000 N   0  0  0  0  0  0  0  0  0  0  0  0
  1  2  3  0  0  0  0 
  2  3  1  0  0  0  0 
  3  4  1  0  0  0  0 
  3  5  1  0  0  0  0 
  3  6  1  0  0  0  0 
  5  7  3  0  0  0  0 
M  END
> <Name>
DIMETHYLMALONONITRILE

> <Source>
NIST2DMolFile

> <Tox>
0.161

> <CAS>
7321-55-3

$$$$

  CDK

 19 23  0  0  0  0  0  0  0  0999 V2000
    4.6304    1.6498    0.0000 C   0  0  0  0  0  0  0  0  0  0  0  0
    4.9292    2.4576    0.0000 C   0  0  0  0  0  0  0  0  0  0  0  0
    3.7551    1.6768    0.0000 C   0  0  0  0  0  0  0  0  0  0  0  0
    4.2591    3.0343    0.0000 C   0  0  0  0  0  0  0  0  0  0  0  0
    5.7279    2.6640    0.0000 C   0  0  0  0  0  0  0  0  0  0  0  0
    3.7792    2.4465    0.0000 C   0  0  0  0  0  0  0  0  0  0  0  0
    2.8402    1.7723    0.0000 C   0  0  0  0  0  0  0  0  0  0  0  0
    3.4324    3.4391    0.0000 C   0  0  0  0  0  0  0  0  0  0  0  0
    6.3061    2.0755    0.0000 O   0  0  0  0  0  0  0  0  0  0  0  0
    3.0729    2.6220    0.0000 C   0  0  0  0  0  0  0  0  0  0  0  0
    2.2847    2.2107    0.0000 C   0  0  0  0  0  0  0  0  0  0  0  0
    2.5430    2.7761    0.0000 C   0  0  0  0  0  0  0  0  0  0  0  0
    2.7910    3.5263    0.0000 C   0  0  0  0  0  0  0  0  0  0  0  0
    3.3561    4.2605    0.0000 Cl  0  0  0  0  0  0  0  0  0  0  0  0
    3.1706    1.8028    0.0000 Cl  0  0  0  0  0  0  0  0  0  0  0  0
    1.4828    2.0170    0.0000 Cl  0  0  0  0  0  0  0  0  0  0  0  0
    1.7602    3.0365    0.0000 Cl  0  0  0  0  0  0  0  0  0  0  0  0
    2.5725    4.3219    0.0000 Cl  0  0  0  0  0  0  0  0  0  0  0  0
    1.9703    3.6096    0.0000 Cl  0  0  0  0  0  0  0  0  0  0  0  0
  2  1  1  0  0  0  0 
  1  3  1  0  0  0  0 
  4  2  1  0  0  0  0 
  2  5  1  0  0  0  0 
  6  3  1  0  0  0  0 
  3  7  1  0  0  0  0 
  4  6  1  0  0  0  0 
  8  4  1  0  0  0  0 
  5  9  2  0  0  0  0 
  6 10  1  0  0  0  0 
  7 11  1  0  0  0  0 
 12  7  1  0  0  0  0 
 13  8  1  0  0  0  0 
  8 12  1  0  0  0  0 
  8 14  1  0  0  0  0 
 11 10  1  0  0  0  0 
 10 13  1  0  0  0  0 
 10 15  1  0  0  0  0 
 11 12  1  0  0  0  0 
 11 16  1  0  0  0  0 
 12 17  1  0  0  0  0 
 13 18  1  0  0  0  0 
 13 19  1  0  0  0  0 
M  END
> <Name>
ENDRIN ALDEHYDE

> <Source>
NIST2DMolFile

> <Tox>
-6.699

> <CAS>
7421-93-4

$$$$

  CDK

  8  8  0  0  0  0  0  0  0  0999 V2000
    0.0000    1.7462    0.0000 C   0  0  0  0  0  0  0  0  0  0  0  0
    0.9978    1.7462    0.0000 C   0  0  0  0  0  0  0  0  0  0  0  0
    1.4967    0.8481    0.0000 C   0  0  0  0  0  0  0  0  0  0  0  0
    1.4967    2.5943    0.0000 C   0  0  0  0  0  0  0  0  0  0  0  0
    0.9978    0.0000    0.0000 O   0  0  0  0  0  0  0  0  0  0  0  0
    2.4946    0.8481    0.0000 C   0  0  0  0  0  0  0  0  0  0  0  0
    2.4946    2.5943    0.0000 C   0  0  0  0  0  0  0  0  0  0  0  0
    2.9935    1.7462    0.0000 C   0  0  0  0  0  0  0  0  0  0  0  0
  2  1  1  6  0  0  0 
  3  2  1  0  0  0  0 
  2  4  1  0  0  0  0 
  3  5  1  1  0  0  0 
  6  3  1  0  0  0  0 
  4  7  1  0  0  0  0 
  8  6  1  0  0  0  0 
  7  8  1  0  0  0  0 
M  END
> <Name>
2-METHYLCYCLOHEXANOL (TRANS)

> <Source>
NIST2DMolFile

> <Tox>
0.079

> <CAS>
7443-52-9

$$$$

  CDK

  8  8  0  0  0  0  0  0  0  0999 V2000
    1.2127    2.0988    0.0000 C   0  0  0  0  0  0  0  0  0  0  0  0
    1.2127    0.6996    0.0000 C   0  0  0  0  0  0  0  0  0  0  0  0
    2.4253    2.7984    0.0000 C   0  0  0  0  0  0  0  0  0  0  0  0
    0.0000    2.7984    0.0000 C   0  0  0  0  0  0  0  0  0  0  0  0
    2.4253    0.0000    0.0000 C   0  0  0  0  0  0  0  0  0  0  0  0
    3.6380    2.0988    0.0000 C   0  0  0  0  0  0  0  0  0  0  0  0
    3.6380    0.6996    0.0000 C   0  0  0  0  0  0  0  0  0  0  0  0
    4.8506    2.7984    0.0000 O   0  0  0  0  0  0  0  0  0  0  0  0
  1  2  1  0  0  0  0 
  1  3  1  0  0  0  0 
  1  4  1  6  0  0  0 
  2  5  1  0  0  0  0 
  6  3  1  0  0  0  0 
  5  7  1  0  0  0  0 
  7  6  1  0  0  0  0 
  6  8  1  1  0  0  0 
M  END
> <Name>
3-METHYLCYCLOHEXANOL (TRANS)

> <Source>
IndexNet2DMolFile

> <Tox>
-0.241

> <CAS>
7443-55-2

$$$$

  CDK

  8  8  0  0  0  0  0  0  0  0999 V2000
    0.0000    1.5033    0.0000 C   0  0  0  0  0  0  0  0  0  0  0  0
    0.8643    2.0089    0.0000 C   0  0  0  0  0  0  0  0  0  0  0  0
    0.0000    0.5020    0.0000 C   0  0  0  0  0  0  0  0  0  0  0  0
    1.7284    1.5033    0.0000 C   0  0  0  0  0  0  0  0  0  0  0  0
    0.8643    0.0063    0.0000 C   0  0  0  0  0  0  0  0  0  0  0  0
    1.7284    0.5020    0.0000 C   0  0  0  0  0  0  0  0  0  0  0  0
    2.5969    2.0014    0.0000 O   0  0  0  0  0  0  0  0  0  0  0  0
    2.5947    0.0000    0.0000 C   0  0  0  0  0  0  0  0  0  0  0  0
  1  2  1  0  0  0  0 
  3  1  1  0  0  0  0 
  2  4  1  0  0  0  0 
  5  3  1  0  0  0  0 
  4  6  1  0  0  0  0 
  4  7  1  1  0  0  0 
  6  5  1  0  0  0  0 
  6  8  1  1  0  0  0 
M  END
> <Name>
2-METHYLCYCLOHEXANOL (CIS)

> <Source>
NIST2DMolFile

> <Tox>
0.161

> <CAS>
7443-70-1

$$$$

  CDK

 10 10  0  0  0  0  0  0  0  0999 V2000
   -1.1539   -0.0233   -0.2941 C   0  0  0  0  0  0  0  0  0  0  0  0
   -2.3689   -0.8479   -0.5547 C   0  0  0  0  0  0  0  0  0  0  0  0
    0.1096   -0.6140   -0.3210 C   0  0  0  0  0  0  0  0  0  0  0  0
   -1.2811    1.3389   -0.0219 C   0  0  0  0  0  0  0  0  0  0  0  0
   -2.9453   -1.4527    0.7230 C   0  0  0  0  0  0  0  0  0  0  0  0
    1.2456    0.1576   -0.0761 C   0  0  0  0  0  0  0  0  0  0  0  0
   -0.1451    2.1105    0.2228 C   0  0  0  0  0  0  0  0  0  0  0  0
    1.1181    1.5198    0.1958 C   0  0  0  0  0  0  0  0  0  0  0  0
    2.5632   -0.4578   -0.1036 C   0  0  0  0  0  0  0  0  0  0  0  0
    2.8578   -1.7312    0.2298 C   0  0  0  0  0  0  0  0  0  0  0  0
  1  2  1  0  0  0  0 
  1  3  2  0  0  0  0 
  1  4  1  0  0  0  0 
  2  5  1  0  0  0  0 
  3  6  1  0  0  0  0 
  4  7  2  0  0  0  0 
  6  8  2  0  0  0  0 
  6  9  1  0  0  0  0 
  8  7  1  0  0  0  0 
  9 10  2  0  0  0  0 
M  END
> <Name>
M-ETHYLSTYRENE

> <Source>
Chemidplus3DMolFile

> <Tox>
-0.095

> <CAS>
7525-62-4

$$$$

  CDK

  7  6  0  0  0  0  0  0  0  0999 V2000
    1.4751    2.3961    1.9321 C   0  0  0  0  0  0  0  0  0  0  0  0
    2.6865    1.6186    2.4251 C   0  0  0  0  0  0  0  0  0  0  0  0
    0.8750    3.2383    3.0353 C   0  0  0  0  0  0  0  0  0  0  0  0
    3.2410    0.7472    1.3552 C   0  0  0  0  0  0  0  0  0  0  0  0
    4.5325    0.6759    1.0282 C   0  0  0  0  0  0  0  0  0  0  0  0
    5.6144    1.4593    1.6822 C   0  0  0  0  0  0  0  0  0  0  0  0
    6.5289    2.1012    0.6623 C   0  0  0  0  0  0  0  0  0  0  0  0
  1  2  1  0  0  0  0 
  1  3  1  0  0  0  0 
  2  4  1  0  0  0  0 
  4  5  2  0  0  0  0 
  5  6  1  0  0  0  0 
  6  7  1  0  0  0  0 
M  END
> <Name>
3-HEPTENE (CIS)

> <Source>
NIST3DMolFile

> <Tox>
1.726

> <CAS>
7642-10-6

$$$$

  CDK

  6  5  0  0  0  0  0  0  0  0999 V2000
    3.4490    1.7004    1.5999 C   0  0  0  0  0  0  0  0  0  0  0  0
    2.2317    2.5159    1.8553 C   0  0  0  0  0  0  0  0  0  0  0  0
    4.6318    2.2017    1.2382 C   0  0  0  0  0  0  0  0  0  0  0  0
    1.5550    2.1454    3.1680 C   0  0  0  0  0  0  0  0  0  0  0  0
    4.9151    3.6412    1.0501 C   0  0  0  0  0  0  0  0  0  0  0  0
    0.7825    0.8480    3.0812 C   0  0  0  0  0  0  0  0  0  0  0  0
  1  2  1  0  0  0  0 
  1  3  2  0  0  0  0 
  2  4  1  0  0  0  0 
  3  5  1  0  0  0  0 
  4  6  1  0  0  0  0 
M  END
> <Name>
2-HEXENE (Z)

> <Source>
NIST3DMolFile

> <Tox>
2.176

> <CAS>
7688-21-3

$$$$

  CDK

  8  8  0  0  0  0  0  0  0  0999 V2000
    0.0000    0.8559    0.0000 C   0  0  0  0  0  0  0  0  0  0  0  0
    1.0069    0.8559    0.0000 C   0  0  0  0  0  0  0  0  0  0  0  0
    1.5104    1.7118    0.0000 C   0  0  0  0  0  0  0  0  0  0  0  0
    1.5104    0.0000    0.0000 C   0  0  0  0  0  0  0  0  0  0  0  0
    2.5174    1.7118    0.0000 C   0  0  0  0  0  0  0  0  0  0  0  0
    2.5174    0.0000    0.0000 C   0  0  0  0  0  0  0  0  0  0  0  0
    3.0210    0.8559    0.0000 C   0  0  0  0  0  0  0  0  0  0  0  0
    4.0279    0.8559    0.0000 O   0  0  0  0  0  0  0  0  0  0  0  0
  2  1  1  1  0  0  0 
  2  3  1  0  0  0  0 
  4  2  1  0  0  0  0 
  3  5  1  0  0  0  0 
  6  4  1  0  0  0  0 
  5  7  1  0  0  0  0 
  7  6  1  0  0  0  0 
  7  8  1  1  0  0  0 
M  END
> <Name>
4-METHYLCYCLOHEXANOL (CIS)

> <Source>
NIST2DMolFile

> <Tox>
-0.484

> <CAS>
7731-28-4

$$$$

  CDK

  8  8  0  0  0  0  0  0  0  0999 V2000
    0.0000    0.8559    0.0000 C   0  0  0  0  0  0  0  0  0  0  0  0
    1.0069    0.8559    0.0000 C   0  0  0  0  0  0  0  0  0  0  0  0
    1.5104    1.7118    0.0000 C   0  0  0  0  0  0  0  0  0  0  0  0
    1.5104    0.0000    0.0000 C   0  0  0  0  0  0  0  0  0  0  0  0
    2.5174    1.7118    0.0000 C   0  0  0  0  0  0  0  0  0  0  0  0
    2.5174    0.0000    0.0000 C   0  0  0  0  0  0  0  0  0  0  0  0
    3.0210    0.8559    0.0000 C   0  0  0  0  0  0  0  0  0  0  0  0
    4.0279    0.8559    0.0000 O   0  0  0  0  0  0  0  0  0  0  0  0
  2  1  1  1  0  0  0 
  2  3  1  0  0  0  0 
  4  2  1  0  0  0  0 
  3  5  1  0  0  0  0 
  6  4  1  0  0  0  0 
  5  7  1  0  0  0  0 
  7  6  1  0  0  0  0 
  7  8  1  6  0  0  0 
M  END
> <Name>
4-METHYLCYCLOHEXANOL (TRANS)

> <Source>
NIST2DMolFile

> <Tox>
-0.410

> <CAS>
7731-29-5

$$$$

  CDK

  5  4  0  0  0  0  0  0  0  0999 V2000
    2.5797    0.4961    0.0000 C   0  0  0  0  0  0  0  0  0  0  0  0
    1.7364    0.0000    0.0000 C   0  0  0  0  0  0  0  0  0  0  0  0
    3.4727    0.0000    0.0000 Cl  0  0  0  0  0  0  0  0  0  0  0  0
    0.8930    0.4961    0.0000 C   0  0  0  0  0  0  0  0  0  0  0  0
    0.0000    0.0000    0.0000 Cl  0  0  0  0  0  0  0  0  0  0  0  0
  1  2  1  0  0  0  0 
  1  3  1  0  0  0  0 
  2  4  2  0  0  0  0 
  4  5  1  0  0  0  0 
M  END
> <Name>
1,3-DICHLOROPROPENE (TRANS)

> <Source>
NIST2DMolFile

> <Tox>
1.531

> <CAS>
10061-02-6

$$$$

  CDK

  7  6  0  0  0  0  0  0  0  0999 V2000
    0.4951    0.9902    0.0000 C   0  0  0  0  0  0  0  0  0  0  0  0
    1.4854    0.9902    0.0000 Si  0  0  0  0  0  0  0  0  0  0  0  0
    0.0000    0.0990    0.0000 C   0  0  0  0  0  0  0  0  0  0  0  0
    2.4756    0.9902    0.0000 C   0  0  0  0  0  0  0  0  0  0  0  0
    1.4854    0.0000    0.0000 Cl  0  0  0  0  0  0  0  0  0  0  0  0
    1.4854    1.9805    0.0000 Cl  0  0  0  0  0  0  0  0  0  0  0  0
    2.9707    1.8815    0.0000 C   0  0  0  0  0  0  0  0  0  0  0  0
  1  2  1  0  0  0  0 
  1  3  1  0  0  0  0 
  2  4  1  0  0  0  0 
  2  5  1  0  0  0  0 
  2  6  1  0  0  0  0 
  4  7  2  0  0  0  0 
M  END
> <Name>
ETHYL VINYL DICHLOROSILANE

> <Source>
NIST2DMolFile

> <Tox>
1.230

> <CAS>
10138-21-3

$$$$

  CDK

 17 16  0  0  0  0  0  0  0  0999 V2000
   -5.4793   -0.5506   -0.3947 O   0  0  0  0  0  0  0  0  0  0  0  0
   -4.4075    0.2964   -0.3806 C   0  0  0  0  0  0  0  0  0  0  0  0
   -6.7048   -0.0019    0.1008 C   0  0  0  0  0  0  0  0  0  0  0  0
   -4.4544    1.5133   -0.4963 O   0  0  0  0  0  0  0  0  0  0  0  0
   -3.1411   -0.5173   -0.2307 C   0  0  0  0  0  0  0  0  0  0  0  0
   -7.8030   -1.0486   -0.0101 C   0  0  0  0  0  0  0  0  0  0  0  0
   -6.5032    0.4582    1.5366 C   0  0  0  0  0  0  0  0  0  0  0  0
   -1.8698    0.3292   -0.2951 C   0  0  0  0  0  0  0  0  0  0  0  0
   -0.5987   -0.5103   -0.1321 C   0  0  0  0  0  0  0  0  0  0  0  0
    0.6538    0.3677   -0.1728 C   0  0  0  0  0  0  0  0  0  0  0  0
    1.9232   -0.4641    0.0241 C   0  0  0  0  0  0  0  0  0  0  0  0
    3.1715    0.4203    0.0158 C   0  0  0  0  0  0  0  0  0  0  0  0
    4.4804   -0.3688    0.1170 C   0  0  0  0  0  0  0  0  0  0  0  0
    5.7706    0.4537    0.0261 C   0  0  0  0  0  0  0  0  0  0  0  0
    7.0407   -0.3994    0.0728 C   0  0  0  0  0  0  0  0  0  0  0  0
    8.3274    0.4303    0.0722 C   0  0  0  0  0  0  0  0  0  0  0  0
    9.5940   -0.4082    0.1472 C   0  0  0  0  0  0  0  0  0  0  0  0
  1  2  1  0  0  0  0 
  1  3  1  0  0  0  0 
  4  2  2  0  0  0  0 
  5  2  1  0  0  0  0 
  3  6  1  0  0  0  0 
  3  7  1  0  0  0  0 
  8  5  1  0  0  0  0 
  9  8  1  0  0  0  0 
 10  9  1  0  0  0  0 
 11 10  1  0  0  0  0 
 11 12  1  0  0  0  0 
 12 13  1  0  0  0  0 
 13 14  1  0  0  0  0 
 14 15  1  0  0  0  0 
 15 16  1  0  0  0  0 
 16 17  1  0  0  0  0 
M  END
> <Name>
ISOPROPYL LAURATE

> <Source>
Chemidplus3DMolFile

> <Tox>
-2.572

> <CAS>
10233-13-3

$$$$

  CDK

 23 24  0  0  0  0  0  0  0  0999 V2000
    4.2968    3.3475    0.0000 C   0  0  0  0  0  0  0  0  0  0  0  0
    4.7965    2.4982    0.0000 S   0  0  0  0  0  0  0  0  0  0  0  0
    4.7965    4.1969    0.0000 C   0  0  0  0  0  0  0  0  0  0  0  0
    3.2976    3.3475    0.0000 N   0  0  0  0  0  0  0  0  0  0  0  0
    5.7957    2.4982    0.0000 P   0  0  0  0  0  0  0  0  0  0  0  0
    5.7957    4.1969    0.0000 Cl  0  0  0  0  0  0  0  0  0  0  0  0
    2.6980    4.1969    0.0000 C   0  0  0  0  0  0  0  0  0  0  0  0
    2.6980    2.5481    0.0000 C   0  0  0  0  0  0  0  0  0  0  0  0
    6.7950    2.4982    0.0000 O   0  0  0  0  0  0  0  0  0  0  0  0
    5.7957    1.4989    0.0000 O   0  0  0  0  0  0  0  0  0  0  0  0
    5.7957    3.4974    0.0000 S   0  0  0  0  0  0  0  0  0  0  0  0
    2.9978    5.1462    0.0000 O   0  0  0  0  0  0  0  0  0  0  0  0
    1.7487    3.8472    0.0000 C   0  0  0  0  0  0  0  0  0  0  0  0
    2.9978    1.5988    0.0000 O   0  0  0  0  0  0  0  0  0  0  0  0
    1.7487    2.8479    0.0000 C   0  0  0  0  0  0  0  0  0  0  0  0
    7.2946    3.3475    0.0000 C   0  0  0  0  0  0  0  0  0  0  0  0
    6.6451    0.9993    0.0000 C   0  0  0  0  0  0  0  0  0  0  0  0
    0.8993    4.3468    0.0000 C   0  0  0  0  0  0  0  0  0  0  0  0
    0.8993    2.3483    0.0000 C   0  0  0  0  0  0  0  0  0  0  0  0
    8.2939    3.3475    0.0000 C   0  0  0  0  0  0  0  0  0  0  0  0
    6.6451    0.0000    0.0000 C   0  0  0  0  0  0  0  0  0  0  0  0
    0.0000    3.8472    0.0000 C   0  0  0  0  0  0  0  0  0  0  0  0
    0.0000    2.8479    0.0000 C   0  0  0  0  0  0  0  0  0  0  0  0
  1  2  1  0  0  0  0 
  1  3  1  0  0  0  0 
  1  4  1  0  0  0  0 
  2  5  1  0  0  0  0 
  3  6  1  0  0  0  0 
  7  4  1  0  0  0  0 
  4  8  1  0  0  0  0 
  5  9  1  0  0  0  0 
  5 10  1  0  0  0  0 
  5 11  2  0  0  0  0 
  7 12  2  0  0  0  0 
 13  7  1  0  0  0  0 
  8 14  2  0  0  0  0 
  8 15  1  0  0  0  0 
  9 16  1  0  0  0  0 
 10 17  1  0  0  0  0 
 15 13  2  0  0  0  0 
 18 13  1  0  0  0  0 
 15 19  1  0  0  0  0 
 16 20  1  0  0  0  0 
 17 21  1  0  0  0  0 
 22 18  2  0  0  0  0 
 19 23  2  0  0  0  0 
 23 22  1  0  0  0  0 
M  END
> <Name>
DIALIFOR

> <Source>
NIST2DMolFile

> <Tox>
-7.208

> <CAS>
10311-84-9

$$$$

  CDK

  7  6  0  0  0  0  0  0  0  0999 V2000
   -1.0013    0.1896   -0.0572 C   0  0  0  0  0  0  0  0  0  0  0  0
    0.2697   -0.1547   -0.3256 C   0  0  0  0  0  0  0  0  0  0  0  0
   -1.5523    1.7709   -0.0940 Cl  0  0  0  0  0  0  0  0  0  0  0  0
   -2.1541   -0.9576    0.3392 Cl  0  0  0  0  0  0  0  0  0  0  0  0
    1.3364    0.8040   -0.6874 C   0  0  0  0  0  0  0  0  0  0  0  0
    0.7335   -1.7681   -0.2610 Cl  0  0  0  0  0  0  0  0  0  0  0  0
    2.6916    0.6004    0.4453 Cl  0  0  0  0  0  0  0  0  0  0  0  0
  1  2  2  0  0  0  0 
  1  3  1  0  0  0  0 
  1  4  1  0  0  0  0 
  2  5  1  0  0  0  0 
  2  6  1  0  0  0  0 
  5  7  1  0  0  0  0 
M  END
> <Name>
1,1,2,3-Tetrachloropropene

> <Source>
DougDB3DMolFile

> <Tox>
0.428

> <CAS>
10436-39-2

$$$$

  CDK

  7  6  0  0  0  0  0  0  0  0999 V2000
    3.5774    3.0285    2.0787 C   0  0  0  0  0  0  0  0  0  0  0  0
    2.9676    1.9193    2.5384 C   0  0  0  0  0  0  0  0  0  0  0  0
    3.4324    3.4983    0.6739 C   0  0  0  0  0  0  0  0  0  0  0  0
    4.4480    3.8896    2.9231 C   0  0  0  0  0  0  0  0  0  0  0  0
    2.0959    1.0674    1.6674 C   0  0  0  0  0  0  0  0  0  0  0  0
    3.1089    1.4347    3.9374 C   0  0  0  0  0  0  0  0  0  0  0  0
    0.6343    1.4348    1.8157 C   0  0  0  0  0  0  0  0  0  0  0  0
  1  2  2  0  0  0  0 
  1  3  1  0  0  0  0 
  1  4  1  0  0  0  0 
  2  5  1  0  0  0  0 
  2  6  1  0  0  0  0 
  5  7  1  0  0  0  0 
M  END
> <Name>
2,3-DIMETHYL-2-PENTENE

> <Source>
NIST3DMolFile

> <Tox>
1.701

> <CAS>
10574-37-5

$$$$

  CDK

  9 10  0  0  0  0  0  0  0  0999 V2000
    2.7533    1.0733    0.0000 C   0  0  0  0  0  0  0  0  0  0  0  0
    4.1533    1.0733    0.0000 C   0  0  0  0  0  0  0  0  0  0  0  0
    2.3333    2.3800    0.0000 C   0  0  0  0  0  0  0  0  0  0  0  0
    1.8200    0.0000    0.0000 C   0  0  0  0  0  0  0  0  0  0  0  0
    4.5733    2.3800    0.0000 C   0  0  0  0  0  0  0  0  0  0  0  0
    3.4533    3.2200    0.0000 S   0  0  0  0  0  0  0  0  0  0  0  0
    0.9333    2.7067    0.0000 C   0  0  0  0  0  0  0  0  0  0  0  0
    0.4667    0.3267    0.0000 C   0  0  0  0  0  0  0  0  0  0  0  0
    0.0000    1.6333    0.0000 C   0  0  0  0  0  0  0  0  0  0  0  0
  1  2  1  0  0  0  0 
  1  3  2  0  0  0  0 
  1  4  1  0  0  0  0 
  2  5  2  0  0  0  0 
  6  3  1  0  0  0  0 
  3  7  1  0  0  0  0 
  8  4  2  0  0  0  0 
  5  6  1  0  0  0  0 
  7  9  2  0  0  0  0 
  9  8  1  0  0  0  0 
M  END
> <Name>
BENZOTHIOPHENE

> <Source>
IndexNet2DMolFile

> <Tox>
-0.622

> <CAS>
11095-43-5

$$$$

  CDK

 51 58  0  0  0  0  0  0  0  0999 V2000
    2.2551    4.0724    0.0000 C   0  0  0  0  0  0  0  0  0  0  0  0
    2.0360    3.2413    0.0000 C   0  0  0  0  0  0  0  0  0  0  0  0
    2.1131    2.3740    0.0000 C   0  0  0  0  0  0  0  0  0  0  0  0
    2.9263    2.1367    0.0000 C   0  0  0  0  0  0  0  0  0  0  0  0
    1.5638    1.7226    0.0000 C   0  0  0  0  0  0  0  0  0  0  0  0
    0.7995    2.0806    0.0000 O   0  0  0  0  0  0  0  0  0  0  0  0
    1.7055    0.8820    0.0000 O   0  0  0  0  0  0  0  0  0  0  0  0
    1.1144    0.3116    0.0000 C   0  0  0  0  0  0  0  0  0  0  0  0
    1.3059    1.1189    0.0000 C   0  0  0  0  0  0  0  0  0  0  0  0
    0.3202   -0.0072    0.0000 C   0  0  0  0  0  0  0  0  0  0  0  0
    0.6885    1.6663    0.0000 C   0  0  0  0  0  0  0  0  0  0  0  0
   -0.0400   -0.7525    0.0000 C   0  0  0  0  0  0  0  0  0  0  0  0
   -0.2617    0.6273    0.0000 C   0  0  0  0  0  0  0  0  0  0  0  0
    1.1840   -0.2539    0.0000 C   0  0  0  0  0  0  0  0  0  0  0  0
    0.8685    2.5417    0.0000 O   0  0  0  0  0  0  0  0  0  0  0  0
   -0.1085    1.4204    0.0000 C   0  0  0  0  0  0  0  0  0  0  0  0
   -0.9444   -0.8834    0.0000 C   0  0  0  0  0  0  0  0  0  0  0  0
    0.5516   -1.3939    0.0000 C   0  0  0  0  0  0  0  0  0  0  0  0
   -1.0864    0.5200    0.0000 C   0  0  0  0  0  0  0  0  0  0  0  0
    1.2631   -1.0652    0.0000 O   0  0  0  0  0  0  0  0  0  0  0  0
    1.6180    2.9714    0.0000 C   0  0  0  0  0  0  0  0  0  0  0  0
   -0.3437    2.2167    0.0000 C   0  0  0  0  0  0  0  0  0  0  0  0
   -0.8667    1.8156    0.0000 C   0  0  0  0  0  0  0  0  0  0  0  0
   -1.3988   -0.2104    0.0000 C   0  0  0  0  0  0  0  0  0  0  0  0
   -0.7695   -1.6800    0.0000 C   0  0  0  0  0  0  0  0  0  0  0  0
   -1.7433   -1.5262    0.0000 C   0  0  0  0  0  0  0  0  0  0  0  0
    1.2539   -1.8476    0.0000 O   0  0  0  0  0  0  0  0  0  0  0  0
    0.6817   -2.2446    0.0000 C   0  0  0  0  0  0  0  0  0  0  0  0
   -1.4395    1.2413    0.0000 O   0  0  0  0  0  0  0  0  0  0  0  0
    2.4539    2.8289    0.0000 O   0  0  0  0  0  0  0  0  0  0  0  0
    1.8321    3.8237    0.0000 C   0  0  0  0  0  0  0  0  0  0  0  0
   -0.9053    2.8373    0.0000 O   0  0  0  0  0  0  0  0  0  0  0  0
   -0.2703    3.0266    0.0000 O   0  0  0  0  0  0  0  0  0  0  0  0
   -2.2132   -0.4132    0.0000 O   0  0  0  0  0  0  0  0  0  0  0  0
   -2.5963   -1.3276    0.0000 C   0  0  0  0  0  0  0  0  0  0  0  0
   -1.7433   -2.3532    0.0000 C   0  0  0  0  0  0  0  0  0  0  0  0
   -2.4540   -1.9457    0.0000 O   0  0  0  0  0  0  0  0  0  0  0  0
    1.2695   -2.8298    0.0000 O   0  0  0  0  0  0  0  0  0  0  0  0
    0.2097   -2.9533    0.0000 O   0  0  0  0  0  0  0  0  0  0  0  0
    0.3482    3.5425    0.0000 C   0  0  0  0  0  0  0  0  0  0  0  0
   -3.0250   -2.0339    0.0000 C   0  0  0  0  0  0  0  0  0  0  0  0
   -1.8294   -1.1629    0.0000 O   0  0  0  0  0  0  0  0  0  0  0  0
   -2.5056   -2.6750    0.0000 C   0  0  0  0  0  0  0  0  0  0  0  0
   -1.4378   -3.1606    0.0000 C   0  0  0  0  0  0  0  0  0  0  0  0
   -0.1744   -3.7590    0.0000 C   0  0  0  0  0  0  0  0  0  0  0  0
   -1.3548   -1.9329    0.0000 C   0  0  0  0  0  0  0  0  0  0  0  0
   -1.6721   -2.7276    0.0000 C   0  0  0  0  0  0  0  0  0  0  0  0
   -0.5252   -2.0289    0.0000 O   0  0  0  0  0  0  0  0  0  0  0  0
   -1.0123   -3.2545    0.0000 C   0  0  0  0  0  0  0  0  0  0  0  0
   -2.2230   -3.3642    0.0000 O   0  0  0  0  0  0  0  0  0  0  0  0
   -0.2995   -2.8214    0.0000 C   0  0  0  0  0  0  0  0  0  0  0  0
  1  2  1  0  0  0  0 
  2  3  2  0  0  0  0 
  3  4  1  0  0  0  0 
  3  5  1  0  0  0  0 
  5  6  2  0  0  0  0 
  5  7  1  0  0  0  0 
  7  8  1  0  0  0  0 
  8  9  1  0  0  0  0 
  8 10  1  0  0  0  0 
  9 11  1  0  0  0  0 
 12 10  1  0  0  0  0 
 13 10  1  0  0  0  0 
 10 14  1  0  0  0  0 
 11 15  1  0  0  0  0 
 11 16  1  0  0  0  0 
 17 12  1  0  0  0  0 
 12 18  1  0  0  0  0 
 16 13  1  0  0  0  0 
 13 19  1  0  0  0  0 
 20 14  1  0  0  0  0 
 15 21  1  0  0  0  0 
 16 22  1  0  0  0  0 
 16 23  1  0  0  0  0 
 24 17  1  0  0  0  0 
 17 25  1  0  0  0  0 
 17 26  1  0  0  0  0 
 18 27  1  0  0  0  0 
 18 28  1  0  0  0  0 
 18 20  1  0  0  0  0 
 29 19  1  0  0  0  0 
 19 24  1  0  0  0  0 
 21 30  2  0  0  0  0 
 21 31  1  0  0  0  0 
 22 32  2  0  0  0  0 
 22 33  1  0  0  0  0 
 23 29  1  0  0  0  0 
 24 34  1  0  0  0  0 
 26 35  1  0  0  0  0 
 26 36  1  0  0  0  0 
 26 37  1  0  0  0  0 
 28 38  2  0  0  0  0 
 28 39  1  0  0  0  0 
 33 40  1  0  0  0  0 
 35 41  1  0  0  0  0 
 35 42  1  0  0  0  0 
 43 36  1  0  0  0  0 
 36 44  1  0  0  0  0 
 36 37  1  0  0  0  0 
 39 45  1  0  0  0  0 
 41 43  1  0  0  0  0 
 42 46  1  0  0  0  0 
 47 43  1  0  0  0  0 
 46 48  1  0  0  0  0 
 46 47  1  0  0  0  0 
 49 47  1  0  0  0  0 
 47 50  1  0  0  0  0 
 48 51  1  0  0  0  0 
 51 49  2  0  0  0  0 
M  END
> <Name>
Azadirachtin

> <Source>
Smiles

> <Tox>
-10.569

> <CAS>
11141-17-6

$$$$

  CDK

 19 21  0  0  0  0  0  0  0  0999 V2000
    3.9968   -1.3256    0.0000 C   0  0  0  0  0  0  0  0  0  0  0  0
    3.9968   -2.6512    0.0000 C   0  0  0  0  0  0  0  0  0  0  0  0
    2.6712   -1.3256    0.0000 C   0  0  0  0  0  0  0  0  0  0  0  0
    5.3224   -1.3256    0.0000 C   0  0  0  0  0  0  0  0  0  0  0  0
    3.9968   -0.0000    0.0000 O   0  0  0  0  0  0  0  0  0  0  0  0
    4.6446   -3.7974    0.0000 C   0  0  0  0  0  0  0  0  0  0  0  0
    3.3190   -3.7974    0.0000 C   0  0  0  0  0  0  0  0  0  0  0  0
    1.9934   -2.4718    0.0000 C   0  0  0  0  0  0  0  0  0  0  0  0
    1.9934   -0.1595    0.0000 C   0  0  0  0  0  0  0  0  0  0  0  0
    5.9703   -0.1595    0.0000 C   0  0  0  0  0  0  0  0  0  0  0  0
    5.9703   -2.4718    0.0000 C   0  0  0  0  0  0  0  0  0  0  0  0
    0.6678   -2.4718    0.0000 N   0  0  0  0  0  0  0  0  0  0  0  0
    0.6678   -0.1595    0.0000 N   0  0  0  0  0  0  0  0  0  0  0  0
    7.2959   -0.1595    0.0000 C   0  0  0  0  0  0  0  0  0  0  0  0
    7.2959   -2.4718    0.0000 C   0  0  0  0  0  0  0  0  0  0  0  0
    0.0000   -1.3256    0.0000 C   0  0  0  0  0  0  0  0  0  0  0  0
    7.9736   -1.3256    0.0000 C   0  0  0  0  0  0  0  0  0  0  0  0
    9.2992   -1.3256    0.0000 O   0  0  0  0  0  0  0  0  0  0  0  0
    9.9670   -0.1595    0.0000 C   0  0  0  0  0  0  0  0  0  0  0  0
  1  2  1  0  0  0  0 
  1  3  1  0  0  0  0 
  1  4  1  0  0  0  0 
  1  5  1  0  0  0  0 
  2  6  1  0  0  0  0 
  2  7  1  0  0  0  0 
  3  8  2  0  0  0  0 
  3  9  1  0  0  0  0 
  4 10  1  0  0  0  0 
  4 11  2  0  0  0  0 
  6  7  1  0  0  0  0 
 12  8  1  0  0  0  0 
 13  9  2  0  0  0  0 
 10 14  2  0  0  0  0 
 11 15  1  0  0  0  0 
 12 16  2  0  0  0  0 
 13 16  1  0  0  0  0 
 17 14  1  0  0  0  0 
 17 15  2  0  0  0  0 
 17 18  1  0  0  0  0 
 18 19  1  0  0  0  0 
M  END
> <Name>
ANCYMIDOL

> <Source>
DSSTox2DMolFile

> <Tox>
-6.699

> <CAS>
12771-68-5

$$$$

  CDK

 15 14  0  0  0  0  0  0  0  0999 V2000
    0.0000   -4.4794    0.0000 C   0  0  0  0  0  0  0  0  0  0  0  0
    1.3294   -4.4794    0.0000 C   0  0  0  0  0  0  0  0  0  0  0  0
    1.9984   -3.3278    0.0000 O   0  0  0  0  0  0  0  0  0  0  0  0
    3.3278   -3.3278    0.0000 P   0  0  0  0  0  0  0  0  0  0  0  0
    4.6572   -3.3278    0.0000 S   0  0  0  0  0  0  0  0  0  0  0  0
    3.3278   -1.9984    0.0000 O   0  0  0  0  0  0  0  0  0  0  0  0
    3.3278   -4.6572    0.0000 S   0  0  0  0  0  0  0  0  0  0  0  0
    4.4794   -1.3294    0.0000 C   0  0  0  0  0  0  0  0  0  0  0  0
    4.4794   -5.3177    0.0000 C   0  0  0  0  0  0  0  0  0  0  0  0
    4.4794   -0.0000    0.0000 C   0  0  0  0  0  0  0  0  0  0  0  0
    4.4794   -6.6471    0.0000 S   0  0  0  0  0  0  0  0  0  0  0  0
    5.6310   -7.3160    0.0000 C   0  0  0  0  0  0  0  0  0  0  0  0
    6.2915   -6.1644    0.0000 C   0  0  0  0  0  0  0  0  0  0  0  0
    6.7826   -7.9850    0.0000 C   0  0  0  0  0  0  0  0  0  0  0  0
    4.9620   -8.4676    0.0000 C   0  0  0  0  0  0  0  0  0  0  0  0
  1  2  1  0  0  0  0 
  2  3  1  0  0  0  0 
  3  4  1  0  0  0  0 
  4  5  2  0  0  0  0 
  4  6  1  0  0  0  0 
  4  7  1  0  0  0  0 
  6  8  1  0  0  0  0 
  7  9  1  0  0  0  0 
  8 10  1  0  0  0  0 
  9 11  1  0  0  0  0 
 11 12  1  0  0  0  0 
 12 13  1  0  0  0  0 
 12 14  1  0  0  0  0 
 12 15  1  0  0  0  0 
M  END
> <Name>
TERBUFOS

> <Source>
DSSTox2DMolFile

> <Tox>
-3.495

> <CAS>
13071-79-9

$$$$

  CDK

  7  6  0  0  0  0  0  0  0  0999 V2000
    0.7005    0.4401    1.0526 C   0  0  0  0  0  0  0  0  0  0  0  0
    0.0001   -0.3875    0.0001 C   0  0  0  0  0  0  0  0  0  0  0  0
    2.0372    1.3337    0.3094 Cl  0  0  0  0  0  0  0  0  0  0  0  0
   -0.6983    0.4417   -1.0526 C   0  0  0  0  0  0  0  0  0  0  0  0
   -1.1804   -1.4435    0.7956 Cl  0  0  0  0  0  0  0  0  0  0  0  0
    1.1783   -1.4464   -0.7951 Cl  0  0  0  0  0  0  0  0  0  0  0  0
   -2.0361    1.3342   -0.3100 Cl  0  0  0  0  0  0  0  0  0  0  0  0
  1  2  1  0  0  0  0 
  1  3  1  0  0  0  0 
  2  4  1  0  0  0  0 
  2  5  1  0  0  0  0 
  2  6  1  0  0  0  0 
  4  7  1  0  0  0  0 
M  END
> <Name>
PROPANE, 1,2,2,3-TETRACHLORO-

> <Source>
DougDB3DMolFile

> <Tox>
0.484

> <CAS>
13116-53-5

$$$$

  CDK

 18 17  0  0  0  0  0  0  0  0999 V2000
    3.3240   -1.9913    0.0000 O   0  0  0  0  0  0  0  0  0  0  0  0
    1.9913   -1.9913    0.0000 P   0  0  0  0  0  0  0  0  0  0  0  0
    1.9913   -3.3240    0.0000 O   0  0  0  0  0  0  0  0  0  0  0  0
    0.6663   -1.9913    0.0000 O   0  0  0  0  0  0  0  0  0  0  0  0
    1.9913   -0.6663    0.0000 O   0  0  0  0  0  0  0  0  0  0  0  0
    3.1458   -3.9826    0.0000 C   0  0  0  0  0  0  0  0  0  0  0  0
    0.0000   -3.1458    0.0000 C   0  0  0  0  0  0  0  0  0  0  0  0
    3.1458   -0.0000    0.0000 C   0  0  0  0  0  0  0  0  0  0  0  0
    4.2925   -3.3240    0.0000 C   0  0  0  0  0  0  0  0  0  0  0  0
    3.1458   -5.3153    0.0000 C   0  0  0  0  0  0  0  0  0  0  0  0
    5.4470   -3.9826    0.0000 C   0  0  0  0  0  0  0  0  0  0  0  0
    4.2925   -1.9913    0.0000 Cl  0  0  0  0  0  0  0  0  0  0  0  0
    5.4470   -5.3153    0.0000 O   0  0  0  0  0  0  0  0  0  0  0  0
    6.5938   -3.3240    0.0000 N   0  0  0  0  0  0  0  0  0  0  0  0
    6.5938   -1.9913    0.0000 C   0  0  0  0  0  0  0  0  0  0  0  0
    7.7483   -3.9826    0.0000 C   0  0  0  0  0  0  0  0  0  0  0  0
    7.7483   -1.3250    0.0000 C   0  0  0  0  0  0  0  0  0  0  0  0
    7.7483   -5.3153    0.0000 C   0  0  0  0  0  0  0  0  0  0  0  0
  1  2  2  0  0  0  0 
  2  3  1  0  0  0  0 
  2  4  1  0  0  0  0 
  2  5  1  0  0  0  0 
  3  6  1  0  0  0  0 
  4  7  1  0  0  0  0 
  5  8  1  0  0  0  0 
  6  9  2  0  0  0  0 
  6 10  1  0  0  0  0 
  9 11  1  0  0  0  0 
  9 12  1  0  0  0  0 
 11 13  2  0  0  0  0 
 11 14  1  0  0  0  0 
 14 15  1  0  0  0  0 
 14 16  1  0  0  0  0 
 15 17  1  0  0  0  0 
 16 18  1  0  0  0  0 
M  END
> <Name>
PHOSPHAMIDON

> <Source>
DSSTox2DMolFile

> <Tox>
-4.783

> <CAS>
13171-21-6

$$$$

  CDK

  5  4  0  0  0  0  0  0  0  0999 V2000
   13.1993   -7.4625    0.0000 C   0  0  0  0  0  0  0  0  0  0  0  0
   13.1993   -8.9084    0.0000 C   0  0  0  0  0  0  0  0  0  0  0  0
   11.9867   -9.6080    0.0000 C   0  0  0  0  0  0  0  0  0  0  0  0
   14.4120   -9.6080    0.0000 Br  0  0  0  0  0  0  0  0  0  0  0  0
   10.7740   -8.9084    0.0000 C   0  0  0  0  0  0  0  0  0  0  0  0
  1  2  1  0  0  0  0 
  2  3  2  0  0  0  0 
  2  4  1  0  0  0  0 
  3  5  1  0  0  0  0 
M  END
> <Name>
2-BROMO-2-BUTENE (CIS)

> <Source>
IndexNet2DMolFile

> <Tox>
1.755

> <CAS>
13294-71-8

$$$$

  CDK

 15 14  0  0  0  0  0  0  0  0999 V2000
    5.1296    4.9531    2.6179 C   0  0  0  0  0  0  0  0  0  0  0  0
    5.1129    5.8179    3.8667 C   0  0  0  0  0  0  0  0  0  0  0  0
    3.8505    5.0958    1.8109 C   0  0  0  0  0  0  0  0  0  0  0  0
    6.4706    5.8211    4.5538 C   0  0  0  0  0  0  0  0  0  0  0  0
    3.7927    4.0746    0.6833 C   0  0  0  0  0  0  0  0  0  0  0  0
    7.5056    6.5553    3.7116 C   0  0  0  0  0  0  0  0  0  0  0  0
    3.6310    2.6642    1.2333 C   0  0  0  0  0  0  0  0  0  0  0  0
    7.2321    8.0522    3.6919 C   0  0  0  0  0  0  0  0  0  0  0  0
    2.2613    2.4736    1.8654 C   0  0  0  0  0  0  0  0  0  0  0  0
    7.4366    8.7031    5.0530 C   0  0  0  0  0  0  0  0  0  0  0  0
    2.1590    1.1471    2.5979 C   0  0  0  0  0  0  0  0  0  0  0  0
    8.8862    9.0545    5.3565 C   0  0  0  0  0  0  0  0  0  0  0  0
    0.7894    0.9567    3.2097 C   0  0  0  0  0  0  0  0  0  0  0  0
    9.7013    7.8721    5.7479 C   0  0  0  0  0  0  0  0  0  0  0  0
   10.9243    7.6462    5.2816 C   0  0  0  0  0  0  0  0  0  0  0  0
  1  2  1  0  0  0  0 
  1  3  1  0  0  0  0 
  2  4  1  0  0  0  0 
  3  5  1  0  0  0  0 
  4  6  1  0  0  0  0 
  5  7  1  0  0  0  0 
  6  8  1  0  0  0  0 
  7  9  1  0  0  0  0 
  8 10  1  0  0  0  0 
  9 11  1  0  0  0  0 
 10 12  1  0  0  0  0 
 11 13  1  0  0  0  0 
 12 14  1  0  0  0  0 
 14 15  2  0  0  0  0 
M  END
> <Name>
1-PENTADECENE

> <Source>
NIST3DMolFile

> <Tox>
-2.343

> <CAS>
13360-61-7

$$$$

  CDK

  8  7  0  0  0  0  0  0  0  0999 V2000
    5.0187    3.9358    3.2215 C   0  0  0  0  0  0  0  0  0  0  0  0
    4.0822    4.2859    2.0725 C   0  0  0  0  0  0  0  0  0  0  0  0
    5.4331    2.5074    3.1746 C   0  0  0  0  0  0  0  0  0  0  0  0
    2.7852    3.4947    2.1407 C   0  0  0  0  0  0  0  0  0  0  0  0
    6.6644    2.0939    3.4746 C   0  0  0  0  0  0  0  0  0  0  0  0
    1.9170    3.7331    0.9172 C   0  0  0  0  0  0  0  0  0  0  0  0
    7.0670    0.6705    3.4450 C   0  0  0  0  0  0  0  0  0  0  0  0
    0.6223    2.9563    0.9975 C   0  0  0  0  0  0  0  0  0  0  0  0
  1  2  1  0  0  0  0 
  1  3  1  0  0  0  0 
  2  4  1  0  0  0  0 
  3  5  2  0  0  0  0 
  4  6  1  0  0  0  0 
  5  7  1  0  0  0  0 
  6  8  1  0  0  0  0 
M  END
> <Name>
2-OCTENE (TRANS)

> <Source>
NIST3DMolFile

> <Tox>
1.215

> <CAS>
13389-42-9

$$$$

  CDK

 10  9  0  0  0  0  0  0  0  0999 V2000
    2.0459    2.0233    2.8430 C   0  0  0  0  0  0  0  0  0  0  0  0
    3.4009    2.1238    2.0568 C   0  0  0  0  0  0  0  0  0  0  0  0
    2.2293    1.1484    4.0853 C   0  0  0  0  0  0  0  0  0  0  0  0
    1.5939    3.4186    3.2803 C   0  0  0  0  0  0  0  0  0  0  0  0
    0.9442    1.4085    1.9792 C   0  0  0  0  0  0  0  0  0  0  0  0
    4.4645    2.7507    2.9860 C   0  0  0  0  0  0  0  0  0  0  0  0
    3.8707    0.7320    1.6259 C   0  0  0  0  0  0  0  0  0  0  0  0
    3.2335    3.0083    0.8186 C   0  0  0  0  0  0  0  0  0  0  0  0
    5.8273    2.9012    2.3313 C   0  0  0  0  0  0  0  0  0  0  0  0
    6.8348    3.5168    3.2725 C   0  0  0  0  0  0  0  0  0  0  0  0
  1  2  1  0  0  0  0 
  1  3  1  0  0  0  0 
  1  4  1  0  0  0  0 
  1  5  1  0  0  0  0 
  2  6  1  0  0  0  0 
  2  7  1  0  0  0  0 
  2  8  1  0  0  0  0 
  6  9  1  0  0  0  0 
  9 10  1  0  0  0  0 
M  END
> <Name>
2,2,3,3-TETRAMETHYLHEXANE

> <Source>
NIST3DMolFile

> <Tox>
0.590

> <CAS>
13475-81-5

$$$$

  CDK

 22 23  0  0  0  0  0  0  0  0999 V2000
    4.1977    2.4253    0.0000 C   0  0  0  0  0  0  0  0  0  0  0  0
    5.5969    2.4253    0.0000 C   0  0  0  0  0  0  0  0  0  0  0  0
    3.4981    3.6380    0.0000 C   0  0  0  0  0  0  0  0  0  0  0  0
    3.4981    1.2127    0.0000 C   0  0  0  0  0  0  0  0  0  0  0  0
    6.2965    1.2127    0.0000 C   0  0  0  0  0  0  0  0  0  0  0  0
    6.2965    3.6380    0.0000 C   0  0  0  0  0  0  0  0  0  0  0  0
    2.0988    3.6380    0.0000 C   0  0  0  0  0  0  0  0  0  0  0  0
    4.1977    4.8506    0.0000 Br  0  0  0  0  0  0  0  0  0  0  0  0
    2.0988    1.2127    0.0000 C   0  0  0  0  0  0  0  0  0  0  0  0
    4.1977    0.0000    0.0000 Br  0  0  0  0  0  0  0  0  0  0  0  0
    7.6957    1.2127    0.0000 C   0  0  0  0  0  0  0  0  0  0  0  0
    5.5969    0.0000    0.0000 Br  0  0  0  0  0  0  0  0  0  0  0  0
    7.6957    3.6380    0.0000 C   0  0  0  0  0  0  0  0  0  0  0  0
    5.5969    4.8506    0.0000 Br  0  0  0  0  0  0  0  0  0  0  0  0
    1.3992    2.4253    0.0000 C   0  0  0  0  0  0  0  0  0  0  0  0
    1.3992    4.8506    0.0000 Br  0  0  0  0  0  0  0  0  0  0  0  0
    1.3992    0.0000    0.0000 Br  0  0  0  0  0  0  0  0  0  0  0  0
    8.3953    2.4253    0.0000 C   0  0  0  0  0  0  0  0  0  0  0  0
    8.3953    0.0000    0.0000 Br  0  0  0  0  0  0  0  0  0  0  0  0
    8.3953    4.8506    0.0000 Br  0  0  0  0  0  0  0  0  0  0  0  0
    0.0000    2.4253    0.0000 Br  0  0  0  0  0  0  0  0  0  0  0  0
    9.7946    2.4253    0.0000 Br  0  0  0  0  0  0  0  0  0  0  0  0
  1  2  1  0  0  0  0 
  1  3  2  0  0  0  0 
  1  4  1  0  0  0  0 
  2  5  2  0  0  0  0 
  2  6  1  0  0  0  0 
  3  7  1  0  0  0  0 
  3  8  1  0  0  0  0 
  9  4  2  0  0  0  0 
  4 10  1  0  0  0  0 
  5 11  1  0  0  0  0 
  5 12  1  0  0  0  0 
 13  6  2  0  0  0  0 
  6 14  1  0  0  0  0 
  7 15  2  0  0  0  0 
  7 16  1  0  0  0  0 
 15  9  1  0  0  0  0 
  9 17  1  0  0  0  0 
 11 18  2  0  0  0  0 
 11 19  1  0  0  0  0 
 18 13  1  0  0  0  0 
 13 20  1  0  0  0  0 
 15 21  1  0  0  0  0 
 18 22  1  0  0  0  0 
M  END
> <Name>
DECABROMOBIPHENYL

> <Source>
IndexNet2DMolFile

> <Tox>
-9.400

> <CAS>
13654-09-6

$$$$

  CDK

 22 23  0  0  0  0  0  0  0  0999 V2000
   11.4951   -1.9881    0.0000 C   0  0  0  0  0  0  0  0  0  0  0  0
   11.4951   -0.6577    0.0000 O   0  0  0  0  0  0  0  0  0  0  0  0
   12.6461   -2.6608    0.0000 O   0  0  0  0  0  0  0  0  0  0  0  0
   10.3441   -2.6608    0.0000 N   0  0  0  0  0  0  0  0  0  0  0  0
   13.7971   -1.9881    0.0000 C   0  0  0  0  0  0  0  0  0  0  0  0
    9.1931   -1.9881    0.0000 C   0  0  0  0  0  0  0  0  0  0  0  0
   14.9481   -2.6608    0.0000 C   0  0  0  0  0  0  0  0  0  0  0  0
    8.0570   -2.6608    0.0000 C   0  0  0  0  0  0  0  0  0  0  0  0
    9.1931   -0.6577    0.0000 C   0  0  0  0  0  0  0  0  0  0  0  0
    6.9060   -1.9881    0.0000 C   0  0  0  0  0  0  0  0  0  0  0  0
    8.0570   -0.0000    0.0000 C   0  0  0  0  0  0  0  0  0  0  0  0
    6.9060   -0.6577    0.0000 C   0  0  0  0  0  0  0  0  0  0  0  0
    5.7550   -2.6608    0.0000 O   0  0  0  0  0  0  0  0  0  0  0  0
    4.6040   -1.9881    0.0000 C   0  0  0  0  0  0  0  0  0  0  0  0
    4.6040   -0.6577    0.0000 O   0  0  0  0  0  0  0  0  0  0  0  0
    3.4530   -2.6608    0.0000 N   0  0  0  0  0  0  0  0  0  0  0  0
    2.3020   -1.9881    0.0000 C   0  0  0  0  0  0  0  0  0  0  0  0
    1.1510   -2.6608    0.0000 C   0  0  0  0  0  0  0  0  0  0  0  0
    2.3020   -0.6577    0.0000 C   0  0  0  0  0  0  0  0  0  0  0  0
    0.0000   -1.9881    0.0000 C   0  0  0  0  0  0  0  0  0  0  0  0
    1.1510   -0.0000    0.0000 C   0  0  0  0  0  0  0  0  0  0  0  0
    0.0000   -0.6577    0.0000 C   0  0  0  0  0  0  0  0  0  0  0  0
  1  2  2  0  0  0  0 
  1  3  1  0  0  0  0 
  1  4  1  0  0  0  0 
  3  5  1  0  0  0  0 
  4  6  1  0  0  0  0 
  5  7  1  0  0  0  0 
  6  8  2  0  0  0  0 
  6  9  1  0  0  0  0 
  8 10  1  0  0  0  0 
  9 11  2  0  0  0  0 
 10 12  2  0  0  0  0 
 10 13  1  0  0  0  0 
 11 12  1  0  0  0  0 
 13 14  1  0  0  0  0 
 14 15  2  0  0  0  0 
 14 16  1  0  0  0  0 
 16 17  1  0  0  0  0 
 17 18  2  0  0  0  0 
 17 19  1  0  0  0  0 
 18 20  1  0  0  0  0 
 19 21  2  0  0  0  0 
 20 22  2  0  0  0  0 
 21 22  1  0  0  0  0 
M  END
> <Name>
DESMEDIPHAM

> <Source>
DSSTox2DMolFile

> <Tox>
-8.523

> <CAS>
13684-56-5

$$$$

  CDK

  5  4  0  0  0  0  0  0  0  0999 V2000
    0.0000   -1.3308    0.0000 C   0  0  0  0  0  0  0  0  0  0  0  0
    1.1511   -1.9945    0.0000 C   0  0  0  0  0  0  0  0  0  0  0  0
    2.3056   -1.3308    0.0000 C   0  0  0  0  0  0  0  0  0  0  0  0
    2.3056   -0.0000    0.0000 N   0  0  0  0  0  0  0  0  0  0  0  0
    3.4567   -1.9945    0.0000 C   0  0  0  0  0  0  0  0  0  0  0  0
  1  2  1  0  0  0  0 
  2  3  1  0  0  0  0 
  3  4  1  0  0  0  0 
  3  5  1  0  0  0  0 
M  END
> <Name>
SEC-BUTYLAMINE

> <Source>
DSSTox2DMolFile

> <Tox>
2.250

> <CAS>
13952-84-6

$$$$

  CDK

  9  8  0  0  0  0  0  0  0  0999 V2000
    2.6557   -0.4773    0.0000 C   0  0  0  0  0  0  0  0  0  0  0  0
    1.8553   -0.2772    0.0000 C   0  0  0  0  0  0  0  0  0  0  0  0
    1.0550   -0.0771    0.0000 C   0  0  0  0  0  0  0  0  0  0  0  0
    0.2546    0.1230    0.0000 C   0  0  0  0  0  0  0  0  0  0  0  0
    0.0545   -0.6773    0.0000 C   0  0  0  0  0  0  0  0  0  0  0  0
   -0.5458    0.3231    0.0000 C   0  0  0  0  0  0  0  0  0  0  0  0
   -1.3461    0.5232    0.0000 C   0  0  0  0  0  0  0  0  0  0  0  0
   -1.5462   -0.2772    0.0000 C   0  0  0  0  0  0  0  0  0  0  0  0
   -2.1465    0.7233    0.0000 C   0  0  0  0  0  0  0  0  0  0  0  0
  1  2  1  0  0  0  0 
  2  3  1  0  0  0  0 
  3  4  1  0  0  0  0 
  4  5  1  0  0  0  0 
  4  6  1  0  0  0  0 
  6  7  1  0  0  0  0 
  7  8  1  0  0  0  0 
  7  9  1  0  0  0  0 
M  END
> <Name>
TRIPROPYLENE

> <Source>
Smiles

> <Tox>
1.675

> <CAS>
13987-01-4

$$$$

  CDK

  7  6  0  0  0  0  0  0  0  0999 V2000
    2.8589    3.4018    1.6169 C   0  0  0  0  0  0  0  0  0  0  0  0
    4.2083    3.2333    2.3027 C   0  0  0  0  0  0  0  0  0  0  0  0
    1.9425    2.2149    1.8721 C   0  0  0  0  0  0  0  0  0  0  0  0
    4.9462    2.0530    1.7767 C   0  0  0  0  0  0  0  0  0  0  0  0
    0.6593    2.3173    1.0814 C   0  0  0  0  0  0  0  0  0  0  0  0
    6.2658    2.0410    1.5871 C   0  0  0  0  0  0  0  0  0  0  0  0
    6.9971    0.8583    1.0822 C   0  0  0  0  0  0  0  0  0  0  0  0
  1  2  1  0  0  0  0 
  1  3  1  0  0  0  0 
  2  4  1  0  0  0  0 
  3  5  1  0  0  0  0 
  4  6  2  0  0  0  0 
  6  7  1  0  0  0  0 
M  END
> <Name>
2-HEPTENE (TRANS)

> <Source>
NIST3DMolFile

> <Tox>
1.689

> <CAS>
14686-13-6

$$$$

  CDK

 19 19  0  0  0  0  0  0  0  0999 V2000
   10.3685   -3.4527    0.0000 C   0  0  0  0  0  0  0  0  0  0  0  0
   10.3685   -4.7799    0.0000 C   0  0  0  0  0  0  0  0  0  0  0  0
    9.2176   -2.7891    0.0000 C   0  0  0  0  0  0  0  0  0  0  0  0
    9.2176   -5.4538    0.0000 C   0  0  0  0  0  0  0  0  0  0  0  0
    8.0563   -3.4527    0.0000 C   0  0  0  0  0  0  0  0  0  0  0  0
    8.0563   -4.7799    0.0000 C   0  0  0  0  0  0  0  0  0  0  0  0
    6.9054   -2.7891    0.0000 C   0  0  0  0  0  0  0  0  0  0  0  0
    6.9054   -1.4620    0.0000 C   0  0  0  0  0  0  0  0  0  0  0  0
    5.7545   -3.4527    0.0000 N   0  0  0  0  0  0  0  0  0  0  0  0
    6.9054   -0.1348    0.0000 N   0  0  0  0  0  0  0  0  0  0  0  0
    4.6036   -2.7891    0.0000 O   0  0  0  0  0  0  0  0  0  0  0  0
    3.4423   -3.4527    0.0000 P   0  0  0  0  0  0  0  0  0  0  0  0
    2.7891   -2.3018    0.0000 O   0  0  0  0  0  0  0  0  0  0  0  0
    2.2914   -4.1267    0.0000 O   0  0  0  0  0  0  0  0  0  0  0  0
    4.1163   -4.6036    0.0000 S   0  0  0  0  0  0  0  0  0  0  0  0
    3.4423   -1.1613    0.0000 C   0  0  0  0  0  0  0  0  0  0  0  0
    1.1405   -3.4527    0.0000 C   0  0  0  0  0  0  0  0  0  0  0  0
    2.7891   -0.0000    0.0000 C   0  0  0  0  0  0  0  0  0  0  0  0
    0.0000   -4.1267    0.0000 C   0  0  0  0  0  0  0  0  0  0  0  0
  1  2  1  0  0  0  0 
  1  3  2  0  0  0  0 
  2  4  2  0  0  0  0 
  3  5  1  0  0  0  0 
  4  6  1  0  0  0  0 
  5  6  2  0  0  0  0 
  5  7  1  0  0  0  0 
  7  8  1  0  0  0  0 
  7  9  2  0  0  0  0 
  8 10  3  0  0  0  0 
  9 11  1  0  0  0  0 
 11 12  1  0  0  0  0 
 12 13  1  0  0  0  0 
 12 14  1  0  0  0  0 
 12 15  2  0  0  0  0 
 13 16  1  0  0  0  0 
 14 17  1  0  0  0  0 
 16 18  1  0  0  0  0 
 17 19  1  0  0  0  0 
M  END
> <Name>
PHOXIM

> <Source>
DSSTox2DMolFile

> <Tox>
-4.801

> <CAS>
14816-18-3

$$$$

  CDK

  8  7  0  0  0  0  0  0  0  0999 V2000
    4.4841    1.7970    0.9840 C   0  0  0  0  0  0  0  0  0  0  0  0
    3.6607    1.9575    2.0208 C   0  0  0  0  0  0  0  0  0  0  0  0
    5.7615    1.0342    1.0481 C   0  0  0  0  0  0  0  0  0  0  0  0
    2.3854    2.7175    1.9418 C   0  0  0  0  0  0  0  0  0  0  0  0
    6.3528    0.8923    2.4436 C   0  0  0  0  0  0  0  0  0  0  0  0
    1.2450    1.9994    2.6498 C   0  0  0  0  0  0  0  0  0  0  0  0
    7.1362    2.1165    2.8615 C   0  0  0  0  0  0  0  0  0  0  0  0
    0.8159    0.7479    1.9177 C   0  0  0  0  0  0  0  0  0  0  0  0
  1  2  2  0  0  0  0 
  1  3  1  0  0  0  0 
  2  4  1  0  0  0  0 
  3  5  1  0  0  0  0 
  4  6  1  0  0  0  0 
  5  7  1  0  0  0  0 
  6  8  1  0  0  0  0 
M  END
> <Name>
4-OCTENE (TRANS)

> <Source>
NIST3DMolFile

> <Tox>
1.250

> <CAS>
14850-23-8

$$$$

  CDK

 10  9  0  0  0  0  0  0  0  0999 V2000
    0.0000    0.0000    0.0000 C   0  0  0  0  0  0  0  0  0  0  0  0
   -1.1200    0.6800   -0.3000 C   0  0  0  0  0  0  0  0  0  0  0  0
   -2.4400    0.0000   -0.1600 C   0  0  0  0  0  0  0  0  0  0  0  0
   -3.3800    0.9200    0.3800 O   0  0  0  0  0  0  0  0  0  0  0  0
   -4.5600    0.3400    0.6400 C   0  0  0  0  0  0  0  0  0  0  0  0
   -4.8000   -0.8200    0.4200 O   0  0  0  0  0  0  0  0  0  0  0  0
   -5.4200    1.2000    1.1800 O   0  0  0  0  0  0  0  0  0  0  0  0
   -5.0200    2.5400    1.0400 C   0  0  0  0  0  0  0  0  0  0  0  0
   -5.0200    2.9000   -0.4200 C   0  0  0  0  0  0  0  0  0  0  0  0
   -4.6400    4.1400   -0.7800 C   0  0  0  0  0  0  0  0  0  0  0  0
  1  2  2  0  0  0  0 
  2  3  1  0  0  0  0 
  3  4  1  0  0  0  0 
  4  5  1  0  0  0  0 
  5  6  2  0  0  0  0 
  5  7  1  0  0  0  0 
  7  8  1  0  0  0  0 
  8  9  1  0  0  0  0 
  9 10  2  0  0  0  0 
M  END
> <Name>
Diallyl Carbonate

> <Source>
NIH3DMolFile

> <Tox>
-0.991

> <CAS>
15022-08-9

$$$$

  CDK

  8  7  0  0  0  0  0  0  0  0999 V2000
    2.5884    0.9955    0.0000 C   0  0  0  0  0  0  0  0  0  0  0  0
    1.7422    1.4933    0.0000 C   0  0  0  0  0  0  0  0  0  0  0  0
    2.5884    0.0000    0.0000 Cl  0  0  0  0  0  0  0  0  0  0  0  0
    3.4844    1.4933    0.0000 Cl  0  0  0  0  0  0  0  0  0  0  0  0
    0.8960    0.9955    0.0000 C   0  0  0  0  0  0  0  0  0  0  0  0
    1.7422    2.4888    0.0000 Cl  0  0  0  0  0  0  0  0  0  0  0  0
    0.8960    0.0000    0.0000 Cl  0  0  0  0  0  0  0  0  0  0  0  0
    0.0000    1.4933    0.0000 Cl  0  0  0  0  0  0  0  0  0  0  0  0
  1  2  1  0  0  0  0 
  1  3  1  0  0  0  0 
  1  4  1  0  0  0  0 
  2  5  1  0  0  0  0 
  2  6  1  0  0  0  0 
  5  7  1  0  0  0  0 
  5  8  1  0  0  0  0 
M  END
> <Name>
1,1,2,3,3-PENTACHLOROPROPANE

> <Source>
NIST2DMolFile

> <Tox>
-0.028

> <CAS>
15104-61-7

$$$$

  CDK

 20 21  0  0  0  0  0  0  0  0999 V2000
    5.7505   -2.6578    0.0000 C   0  0  0  0  0  0  0  0  0  0  0  0
    4.5988   -1.9974    0.0000 C   0  0  0  0  0  0  0  0  0  0  0  0
    6.9023   -1.9974    0.0000 N   0  0  0  0  0  0  0  0  0  0  0  0
    5.7505   -4.0028    0.0000 O   0  0  0  0  0  0  0  0  0  0  0  0
    3.4552   -2.6578    0.0000 O   0  0  0  0  0  0  0  0  0  0  0  0
    4.5988   -0.6685    0.0000 C   0  0  0  0  0  0  0  0  0  0  0  0
    6.9023   -0.6685    0.0000 C   0  0  0  0  0  0  0  0  0  0  0  0
    8.0540   -2.6578    0.0000 C   0  0  0  0  0  0  0  0  0  0  0  0
    3.4552   -4.0028    0.0000 C   0  0  0  0  0  0  0  0  0  0  0  0
    8.0540   -0.0000    0.0000 C   0  0  0  0  0  0  0  0  0  0  0  0
    8.0540   -4.0028    0.0000 C   0  0  0  0  0  0  0  0  0  0  0  0
    2.3034   -4.6713    0.0000 C   0  0  0  0  0  0  0  0  0  0  0  0
    4.5988   -4.6713    0.0000 C   0  0  0  0  0  0  0  0  0  0  0  0
    2.3034   -5.9922    0.0000 C   0  0  0  0  0  0  0  0  0  0  0  0
    1.1517   -4.0028    0.0000 C   0  0  0  0  0  0  0  0  0  0  0  0
    4.5988   -5.9922    0.0000 C   0  0  0  0  0  0  0  0  0  0  0  0
    1.1517   -6.6606    0.0000 C   0  0  0  0  0  0  0  0  0  0  0  0
    3.4552   -6.6606    0.0000 C   0  0  0  0  0  0  0  0  0  0  0  0
    0.0000   -4.6713    0.0000 C   0  0  0  0  0  0  0  0  0  0  0  0
    0.0000   -5.9922    0.0000 C   0  0  0  0  0  0  0  0  0  0  0  0
  1  2  1  0  0  0  0 
  1  3  1  0  0  0  0 
  1  4  2  0  0  0  0 
  5  2  1  0  0  0  0 
  2  6  1  0  0  0  0 
  3  7  1  0  0  0  0 
  3  8  1  0  0  0  0 
  5  9  1  0  0  0  0 
  7 10  1  0  0  0  0 
  8 11  1  0  0  0  0 
  9 12  2  0  0  0  0 
  9 13  1  0  0  0  0 
 12 14  1  0  0  0  0 
 12 15  1  0  0  0  0 
 13 16  2  0  0  0  0 
 14 17  1  0  0  0  0 
 14 18  2  0  0  0  0 
 15 19  2  0  0  0  0 
 16 18  1  0  0  0  0 
 17 20  2  0  0  0  0 
 19 20  1  0  0  0  0 
M  END
> <Name>
N,N-DIETHYL-2-(1-NAPHTHALENYLOXY)PROPANAMIDE

> <Source>
DSSTox2DMolFile

> <Tox>
-6.764

> <CAS>
15299-99-7

$$$$

  CDK

 15 16  0  0  0  0  0  0  0  0999 V2000
    4.1977    2.4253    0.0000 C   0  0  0  0  0  0  0  0  0  0  0  0
    5.5969    2.4253    0.0000 C   0  0  0  0  0  0  0  0  0  0  0  0
    3.4981    3.6380    0.0000 C   0  0  0  0  0  0  0  0  0  0  0  0
    3.4981    1.2127    0.0000 C   0  0  0  0  0  0  0  0  0  0  0  0
    6.2965    1.2127    0.0000 C   0  0  0  0  0  0  0  0  0  0  0  0
    6.2965    3.6380    0.0000 C   0  0  0  0  0  0  0  0  0  0  0  0
    2.0988    3.6380    0.0000 C   0  0  0  0  0  0  0  0  0  0  0  0
    4.1977    4.8506    0.0000 Cl  0  0  0  0  0  0  0  0  0  0  0  0
    2.0988    1.2127    0.0000 C   0  0  0  0  0  0  0  0  0  0  0  0
    7.6957    1.2127    0.0000 C   0  0  0  0  0  0  0  0  0  0  0  0
    7.6957    3.6380    0.0000 C   0  0  0  0  0  0  0  0  0  0  0  0
    1.3992    2.4253    0.0000 C   0  0  0  0  0  0  0  0  0  0  0  0
    1.3992    0.0000    0.0000 Cl  0  0  0  0  0  0  0  0  0  0  0  0
    8.3953    2.4253    0.0000 C   0  0  0  0  0  0  0  0  0  0  0  0
    0.0000    2.4253    0.0000 Cl  0  0  0  0  0  0  0  0  0  0  0  0
  1  2  1  0  0  0  0 
  1  3  2  0  0  0  0 
  1  4  1  0  0  0  0 
  2  5  2  0  0  0  0 
  2  6  1  0  0  0  0 
  3  7  1  0  0  0  0 
  3  8  1  0  0  0  0 
  9  4  2  0  0  0  0 
  5 10  1  0  0  0  0 
 11  6  2  0  0  0  0 
  7 12  2  0  0  0  0 
 12  9  1  0  0  0  0 
  9 13  1  0  0  0  0 
 10 14  2  0  0  0  0 
 14 11  1  0  0  0  0 
 12 15  1  0  0  0  0 
M  END
> <Name>
2,4,5-TRICHLOROBIPHENYL

> <Source>
IndexNet2DMolFile

> <Tox>
-3.011

> <CAS>
15862-07-4

$$$$

  CDK

  8  7  0  0  0  0  0  0  0  0999 V2000
    1.8293    0.9263    1.7806 C   0  0  0  0  0  0  0  0  0  0  0  0
    0.9624    2.1187    2.1217 C   0  0  0  0  0  0  0  0  0  0  0  0
    3.2414    1.0861    2.3251 C   0  0  0  0  0  0  0  0  0  0  0  0
    3.9640    2.2459    1.6562 C   0  0  0  0  0  0  0  0  0  0  0  0
    5.3067    2.5474    2.3024 C   0  0  0  0  0  0  0  0  0  0  0  0
    6.4100    1.6233    1.8878 C   0  0  0  0  0  0  0  0  0  0  0  0
    6.4201    1.0007    0.7094 C   0  0  0  0  0  0  0  0  0  0  0  0
    7.5167    1.4688    2.8690 C   0  0  0  0  0  0  0  0  0  0  0  0
  1  2  1  0  0  0  0 
  1  3  1  0  0  0  0 
  3  4  1  0  0  0  0 
  5  4  1  0  0  0  0 
  6  5  1  0  0  0  0 
  7  6  2  0  0  0  0 
  6  8  1  0  0  0  0 
M  END
> <Name>
2-METHYL-1-HEPTENE

> <Source>
NIST3DMolFile

> <Tox>
1.305

> <CAS>
15870-10-7

$$$$

  CDK

  8  8  0  0  0  0  0  0  0  0999 V2000
    1.7662    2.5232    0.0000 C   0  0  0  0  0  0  0  0  0  0  0  0
    1.7662    1.5139    0.0000 C   0  0  0  0  0  0  0  0  0  0  0  0
    2.5736    0.9589    0.0000 C   0  0  0  0  0  0  0  0  0  0  0  0
    0.9588    0.9589    0.0000 C   0  0  0  0  0  0  0  0  0  0  0  0
    3.5324    1.2617    0.0000 C   0  0  0  0  0  0  0  0  0  0  0  0
    2.2708    0.0000    0.0000 C   0  0  0  0  0  0  0  0  0  0  0  0
    0.0000    1.2617    0.0000 C   0  0  0  0  0  0  0  0  0  0  0  0
    1.2616    0.0000    0.0000 C   0  0  0  0  0  0  0  0  0  0  0  0
  2  1  1  6  0  0  0 
  2  3  1  0  0  0  0 
  4  2  1  0  0  0  0 
  3  5  1  1  0  0  0 
  3  6  1  0  0  0  0 
  4  7  1  6  0  0  0 
  8  4  1  0  0  0  0 
  6  8  1  0  0  0  0 
M  END
> <Name>
1(TRANS), 2(CIS), 3-TRIMETHYLCYCLOPENTANE

> <Source>
NIST2DMolFile

> <Tox>
1.505

> <CAS>
15890-40-1

$$$$

  CDK

  8  7  0  0  0  0  0  0  0  0999 V2000
   -1.9354    0.0000   -0.3163 C   0  0  0  0  0  0  0  0  0  0  0  0
   -0.5783   -0.0002    0.3402 C   0  0  0  0  0  0  0  0  0  0  0  0
   -2.7114    1.2567    0.0768 C   0  0  0  0  0  0  0  0  0  0  0  0
   -2.7120   -1.2564    0.0764 C   0  0  0  0  0  0  0  0  0  0  0  0
    0.5783   -0.0003   -0.3402 C   0  0  0  0  0  0  0  0  0  0  0  0
    1.9354    0.0001    0.3163 C   0  0  0  0  0  0  0  0  0  0  0  0
    2.7118   -1.2565   -0.0764 C   0  0  0  0  0  0  0  0  0  0  0  0
    2.7116    1.2565   -0.0768 C   0  0  0  0  0  0  0  0  0  0  0  0
  1  2  1  0  0  0  0 
  1  3  1  0  0  0  0 
  1  4  1  0  0  0  0 
  2  5  2  0  0  0  0 
  6  5  1  0  0  0  0 
  6  7  1  0  0  0  0 
  6  8  1  0  0  0  0 
M  END
> <Name>
2,5-DIMETHYL-3-HEXENE

> <Source>
Chemidplus3DMolFile

> <Tox>
1.637

> <CAS>
15910-22-2

$$$$

  CDK

 14 14  0  0  0  0  0  0  0  0999 V2000
    1.8874    5.4768    1.3065 C   0  0  0  0  0  0  0  0  0  0  0  0
    2.0521    4.3183    2.2785 C   0  0  0  0  0  0  0  0  0  0  0  0
    0.7082    3.6320    2.4832 C   0  0  0  0  0  0  0  0  0  0  0  0
    3.0995    3.3049    1.7805 C   0  0  0  0  0  0  0  0  0  0  0  0
    4.4485    3.9695    1.4174 C   0  0  0  0  0  0  0  0  0  0  0  0
    3.3142    2.1957    2.8092 C   0  0  0  0  0  0  0  0  0  0  0  0
    4.9345    4.6537    2.5852 O   0  0  0  0  0  0  0  0  0  0  0  0
    5.4607    2.9135    0.9452 C   0  0  0  0  0  0  0  0  0  0  0  0
    4.3436    1.1747    2.3570 C   0  0  0  0  0  0  0  0  0  0  0  0
    5.7301    5.7515    2.4398 C   0  0  0  0  0  0  0  0  0  0  0  0
    5.6692    1.8278    2.0047 C   0  0  0  0  0  0  0  0  0  0  0  0
    6.1361    6.3381    3.7637 C   0  0  0  0  0  0  0  0  0  0  0  0
    6.0414    6.1507    1.3343 O   0  0  0  0  0  0  0  0  0  0  0  0
    6.6529    0.7858    1.5009 C   0  0  0  0  0  0  0  0  0  0  0  0
  1  2  1  0  0  0  0 
  2  3  1  0  0  0  0 
  2  4  1  0  0  0  0 
  4  5  1  0  0  0  0 
  6  4  1  0  0  0  0 
  5  7  1  0  0  0  0 
  5  8  1  0  0  0  0 
  9  6  1  0  0  0  0 
  7 10  1  0  0  0  0 
  8 11  1  0  0  0  0 
 11  9  1  0  0  0  0 
 10 12  1  0  0  0  0 
 10 13  2  0  0  0  0 
 11 14  1  0  0  0  0 
M  END
> <Name>
dl-MENTHYL ACETATE

> <Source>
NIST3DMolFile

> <Tox>
-0.983

> <CAS>
16409-45-3

$$$$

  CDK

  7  8  0  0  0  0  0  0  0  0999 V2000
   -0.9816   -0.7535   -0.3917 C   0  0  0  0  0  0  0  0  0  0  0  0
   -0.9814    0.7537   -0.3917 C   0  0  0  0  0  0  0  0  0  0  0  0
   -1.6375    0.0000    0.7368 C   0  0  0  0  0  0  0  0  0  0  0  0
    0.2973   -1.5019   -0.1525 C   0  0  0  0  0  0  0  0  0  0  0  0
    0.2976    1.5019   -0.1525 C   0  0  0  0  0  0  0  0  0  0  0  0
    1.5028   -0.6702    0.1758 C   0  0  0  0  0  0  0  0  0  0  0  0
    1.5029    0.6699    0.1758 C   0  0  0  0  0  0  0  0  0  0  0  0
  1  2  1  0  0  0  0 
  1  3  1  0  0  0  0 
  1  4  1  0  0  0  0 
  2  3  1  0  0  0  0 
  2  5  1  0  0  0  0 
  4  6  1  0  0  0  0 
  5  7  1  0  0  0  0 
  6  7  2  0  0  0  0 
M  END
> <Name>
BICYCLO(4.1.0)HEPT-3-ENE

> <Source>
Chemidplus3DMolFile

> <Tox>
1.360

> <CAS>
16554-83-9

$$$$

  CDK

 15 16  0  0  0  0  0  0  0  0999 V2000
    2.7984    2.4253    0.0000 C   0  0  0  0  0  0  0  0  0  0  0  0
    4.1977    2.4253    0.0000 C   0  0  0  0  0  0  0  0  0  0  0  0
    2.0988    3.6380    0.0000 C   0  0  0  0  0  0  0  0  0  0  0  0
    2.0988    1.2127    0.0000 C   0  0  0  0  0  0  0  0  0  0  0  0
    4.8973    1.2127    0.0000 C   0  0  0  0  0  0  0  0  0  0  0  0
    4.8973    3.6380    0.0000 C   0  0  0  0  0  0  0  0  0  0  0  0
    0.6996    3.6380    0.0000 C   0  0  0  0  0  0  0  0  0  0  0  0
    2.7984    4.8506    0.0000 Cl  0  0  0  0  0  0  0  0  0  0  0  0
    0.6996    1.2127    0.0000 C   0  0  0  0  0  0  0  0  0  0  0  0
    6.2965    1.2127    0.0000 C   0  0  0  0  0  0  0  0  0  0  0  0
    6.2965    3.6380    0.0000 C   0  0  0  0  0  0  0  0  0  0  0  0
    0.0000    2.4253    0.0000 C   0  0  0  0  0  0  0  0  0  0  0  0
    0.0000    0.0000    0.0000 Cl  0  0  0  0  0  0  0  0  0  0  0  0
    6.9961    2.4253    0.0000 C   0  0  0  0  0  0  0  0  0  0  0  0
    8.3953    2.4253    0.0000 Cl  0  0  0  0  0  0  0  0  0  0  0  0
  1  2  1  0  0  0  0 
  1  3  2  0  0  0  0 
  1  4  1  0  0  0  0 
  2  5  2  0  0  0  0 
  2  6  1  0  0  0  0 
  3  7  1  0  0  0  0 
  3  8  1  0  0  0  0 
  9  4  2  0  0  0  0 
  5 10  1  0  0  0  0 
 11  6  2  0  0  0  0 
  7 12  2  0  0  0  0 
 12  9  1  0  0  0  0 
  9 13  1  0  0  0  0 
 10 14  2  0  0  0  0 
 14 11  1  0  0  0  0 
 14 15  1  0  0  0  0 
M  END
> <Name>
2,4',5-TRICHLOROBIPHENYL

> <Source>
IndexNet2DMolFile

> <Tox>
-3.398

> <CAS>
16606-02-3

$$$$

  CDK

  4  3  0  0  0  0  0  0  0  0999 V2000
    0.0000    0.0000    0.0000 C   0  0  0  0  0  0  0  0  0  0  0  0
   -0.4800   -0.6600   -1.2000 N   0  0  0  0  0  0  0  0  0  0  0  0
    0.0200    0.0000   -2.4000 C   0  0  0  0  0  0  0  0  0  0  0  0
   -0.0600   -2.0400   -1.2000 O   0  0  0  0  0  0  0  0  0  0  0  0
  1  2  1  0  0  0  0 
  2  3  1  0  0  0  0 
  2  4  1  0  0  0  0 
M  END
> <Name>
N,N-DIMETHYLHYDROXYLAMINE

> <Source>
NIH3DMolFile

> <Tox>
1.326

> <CAS>
16645-06-0

$$$$

  CDK

  7  6  0  0  0  0  0  0  0  0999 V2000
    1.3378   -1.3239    0.0000 P   0  0  0  0  0  0  0  0  0  0  0  0
    1.3378   -2.6524    0.0000 C   0  0  0  0  0  0  0  0  0  0  0  0
    0.0000   -1.3239    0.0000 O   0  0  0  0  0  0  0  0  0  0  0  0
    1.3378   -0.0000    0.0000 O   0  0  0  0  0  0  0  0  0  0  0  0
    2.6756   -1.3239    0.0000 O   0  0  0  0  0  0  0  0  0  0  0  0
    0.1905   -3.3213    0.0000 C   0  0  0  0  0  0  0  0  0  0  0  0
    0.1905   -4.6452    0.0000 Cl  0  0  0  0  0  0  0  0  0  0  0  0
  1  2  1  0  0  0  0 
  1  3  2  0  0  0  0 
  1  4  1  0  0  0  0 
  1  5  1  0  0  0  0 
  2  6  1  0  0  0  0 
  7  6  1  0  0  0  0 
M  END
> <Name>
ETHEPHON

> <Source>
DSSTox2DMolFile

> <Tox>
-7.009

> <CAS>
16672-87-0

$$$$

  CDK

  9  8  0  0  0  0  0  0  0  0999 V2000
    4.4445    1.6801    2.1541 C   0  0  0  0  0  0  0  0  0  0  0  0
    5.5181    1.8059    3.2717 C   0  0  0  0  0  0  0  0  0  0  0  0
    3.1242    2.3781    2.5143 C   0  0  0  0  0  0  0  0  0  0  0  0
    4.9506    2.2204    0.8219 C   0  0  0  0  0  0  0  0  0  0  0  0
    5.0226    1.1466    4.5607 C   0  0  0  0  0  0  0  0  0  0  0  0
    5.8363    3.2713    3.5608 C   0  0  0  0  0  0  0  0  0  0  0  0
    6.7963    1.0832    2.8403 C   0  0  0  0  0  0  0  0  0  0  0  0
    2.0479    1.4048    2.9694 C   0  0  0  0  0  0  0  0  0  0  0  0
    0.7772    2.1287    3.3543 C   0  0  0  0  0  0  0  0  0  0  0  0
  1  2  1  0  0  0  0 
  1  3  1  0  0  0  0 
  1  4  1  0  0  0  0 
  2  5  1  0  0  0  0 
  2  6  1  0  0  0  0 
  2  7  1  0  0  0  0 
  3  8  1  0  0  0  0 
  8  9  1  0  0  0  0 
M  END
> <Name>
2,2,3-TRIMETHYLHEXANE

> <Source>
NIST3DMolFile

> <Tox>
1.057

> <CAS>
16747-25-4

$$$$

  CDK

  9  8  0  0  0  0  0  0  0  0999 V2000
    3.9254    2.6675    2.3276 C   0  0  0  0  0  0  0  0  0  0  0  0
    5.2773    3.3163    1.9707 C   0  0  0  0  0  0  0  0  0  0  0  0
    3.1368    2.0939    1.1443 C   0  0  0  0  0  0  0  0  0  0  0  0
    5.0920    4.3878    0.8987 C   0  0  0  0  0  0  0  0  0  0  0  0
    5.8409    3.9748    3.2327 C   0  0  0  0  0  0  0  0  0  0  0  0
    6.2759    2.2694    1.4838 C   0  0  0  0  0  0  0  0  0  0  0  0
    1.6272    2.2530    1.3489 C   0  0  0  0  0  0  0  0  0  0  0  0
    3.4983    0.6437    0.8681 C   0  0  0  0  0  0  0  0  0  0  0  0
    1.0791    1.5320    2.5603 C   0  0  0  0  0  0  0  0  0  0  0  0
  1  2  1  0  0  0  0 
  1  3  1  0  0  0  0 
  2  4  1  0  0  0  0 
  2  5  1  0  0  0  0 
  2  6  1  0  0  0  0 
  3  7  1  0  0  0  0 
  3  8  1  0  0  0  0 
  7  9  1  0  0  0  0 
M  END
> <Name>
2,2,4-TRIMETHYLHEXANE

> <Source>
NIST3DMolFile

> <Tox>
1.201

> <CAS>
16747-26-5

$$$$

  CDK

  9  8  0  0  0  0  0  0  0  0999 V2000
    4.2614    3.3195    2.1245 C   0  0  0  0  0  0  0  0  0  0  0  0
    2.7224    3.2811    2.0518 C   0  0  0  0  0  0  0  0  0  0  0  0
    4.8961    2.1713    2.9585 C   0  0  0  0  0  0  0  0  0  0  0  0
    4.7139    4.6810    2.6533 C   0  0  0  0  0  0  0  0  0  0  0  0
    4.7883    3.1716    0.6877 C   0  0  0  0  0  0  0  0  0  0  0  0
    2.0010    3.5783    3.3564 C   0  0  0  0  0  0  0  0  0  0  0  0
    4.4002    0.8037    2.5083 C   0  0  0  0  0  0  0  0  0  0  0  0
    4.7279    2.3000    4.4632 C   0  0  0  0  0  0  0  0  0  0  0  0
    0.5193    3.7802    3.1371 C   0  0  0  0  0  0  0  0  0  0  0  0
  1  2  1  0  0  0  0 
  1  3  1  0  0  0  0 
  1  4  1  0  0  0  0 
  1  5  1  0  0  0  0 
  2  6  1  0  0  0  0 
  3  7  1  0  0  0  0 
  3  8  1  0  0  0  0 
  6  9  1  0  0  0  0 
M  END
> <Name>
2,3,3-TRIMETHYLHEXANE

> <Source>
NIST3DMolFile

> <Tox>
0.993

> <CAS>
16747-28-7

$$$$

  CDK

  9  8  0  0  0  0  0  0  0  0999 V2000
    3.1554    2.7233    2.6708 C   0  0  0  0  0  0  0  0  0  0  0  0
    4.2638    2.0318    1.8493 C   0  0  0  0  0  0  0  0  0  0  0  0
    1.9161    1.9651    3.1585 C   0  0  0  0  0  0  0  0  0  0  0  0
    5.1098    1.0734    2.7089 C   0  0  0  0  0  0  0  0  0  0  0  0
    3.7084    1.2507    0.6609 C   0  0  0  0  0  0  0  0  0  0  0  0
    5.1724    3.1363    1.2901 C   0  0  0  0  0  0  0  0  0  0  0  0
    2.2366    0.7768    4.0466 C   0  0  0  0  0  0  0  0  0  0  0  0
    0.9726    1.5511    2.0418 C   0  0  0  0  0  0  0  0  0  0  0  0
    5.7438    1.7273    3.9170 C   0  0  0  0  0  0  0  0  0  0  0  0
  1  2  1  0  0  0  0 
  1  3  1  0  0  0  0 
  2  4  1  0  0  0  0 
  2  5  1  0  0  0  0 
  2  6  1  0  0  0  0 
  3  7  1  0  0  0  0 
  3  8  1  0  0  0  0 
  4  9  1  0  0  0  0 
M  END
> <Name>
2,4,4-TRIMETHYLHEXANE

> <Source>
NIST3DMolFile

> <Tox>
1.127

> <CAS>
16747-30-1

$$$$

  CDK

  9  8  0  0  0  0  0  0  0  0999 V2000
    4.2559    1.9564    1.8467 C   0  0  0  0  0  0  0  0  0  0  0  0
    2.8946    2.6722    2.0824 C   0  0  0  0  0  0  0  0  0  0  0  0
    5.0150    1.7657    3.1655 C   0  0  0  0  0  0  0  0  0  0  0  0
    4.0675    0.6146    1.1505 C   0  0  0  0  0  0  0  0  0  0  0  0
    2.0308    1.8152    3.0267 C   0  0  0  0  0  0  0  0  0  0  0  0
    3.1400    4.0507    2.6996 C   0  0  0  0  0  0  0  0  0  0  0  0
    2.1805    2.8705    0.7443 C   0  0  0  0  0  0  0  0  0  0  0  0
    6.3985    1.1952    2.9591 C   0  0  0  0  0  0  0  0  0  0  0  0
    0.6888    2.4244    3.3594 C   0  0  0  0  0  0  0  0  0  0  0  0
  1  2  1  0  0  0  0 
  1  3  1  0  0  0  0 
  1  4  1  0  0  0  0 
  2  5  1  0  0  0  0 
  2  6  1  0  0  0  0 
  2  7  1  0  0  0  0 
  3  8  1  0  0  0  0 
  5  9  1  0  0  0  0 
M  END
> <Name>
3,3,4-TRIMETHYLHEXANE

> <Source>
NIST3DMolFile

> <Tox>
0.948

> <CAS>
16747-31-2

$$$$

  CDK

  9  8  0  0  0  0  0  0  0  0999 V2000
    3.3889    2.1560    2.4518 C   0  0  0  0  0  0  0  0  0  0  0  0
    1.8603    2.1747    2.7428 C   0  0  0  0  0  0  0  0  0  0  0  0
    3.8331    3.3949    1.6601 C   0  0  0  0  0  0  0  0  0  0  0  0
    4.2115    2.0136    3.7408 C   0  0  0  0  0  0  0  0  0  0  0  0
    1.0826    2.2401    1.4259 C   0  0  0  0  0  0  0  0  0  0  0  0
    1.4712    3.3698    3.6105 C   0  0  0  0  0  0  0  0  0  0  0  0
    1.4535    0.8846    3.4595 C   0  0  0  0  0  0  0  0  0  0  0  0
    5.0194    3.1211    0.7628 C   0  0  0  0  0  0  0  0  0  0  0  0
    5.5255    1.2982    3.5201 C   0  0  0  0  0  0  0  0  0  0  0  0
  1  2  1  0  0  0  0 
  1  3  1  0  0  0  0 
  1  4  1  0  0  0  0 
  2  5  1  0  0  0  0 
  2  6  1  0  0  0  0 
  2  7  1  0  0  0  0 
  3  8  1  0  0  0  0 
  4  9  1  0  0  0  0 
M  END
> <Name>
2,2-DIMETHYL-3-ETHYLPENTANE

> <Source>
NIST3DMolFile

> <Tox>
1.053

> <CAS>
16747-32-3

$$$$

  CDK

  9  8  0  0  0  0  0  0  0  0999 V2000
    3.6551    1.9806    2.3953 C   0  0  0  0  0  0  0  0  0  0  0  0
    3.4464    3.4796    2.0317 C   0  0  0  0  0  0  0  0  0  0  0  0
    3.6547    1.6770    3.8843 C   0  0  0  0  0  0  0  0  0  0  0  0
    2.6815    1.0441    1.6950 C   0  0  0  0  0  0  0  0  0  0  0  0
    2.0914    4.1387    2.4226 C   0  0  0  0  0  0  0  0  0  0  0  0
    3.6002    3.6054    0.5079 C   0  0  0  0  0  0  0  0  0  0  0  0
    4.5691    4.3038    2.6771 C   0  0  0  0  0  0  0  0  0  0  0  0
    0.8870    3.5212    1.7305 C   0  0  0  0  0  0  0  0  0  0  0  0
    1.8433    4.2048    3.9206 C   0  0  0  0  0  0  0  0  0  0  0  0
  1  2  1  0  0  0  0 
  1  3  1  0  0  0  0 
  1  4  1  0  0  0  0 
  2  5  1  0  0  0  0 
  2  6  1  0  0  0  0 
  2  7  1  0  0  0  0 
  5  8  1  0  0  0  0 
  5  9  1  0  0  0  0 
M  END
> <Name>
2,3,3,4-TETRAMETHYLPENTANE

> <Source>
NIST3DMolFile

> <Tox>
0.946

> <CAS>
16747-38-9

$$$$

  CDK

 10  9  0  0  0  0  0  0  0  0999 V2000
    0.0510    0.0000    0.0000 C   0  0  0  0  0  0  0  0  0  0  0  0
    0.5102    0.8673    0.0000 C   0  0  0  0  0  0  0  0  0  0  0  0
    0.0000    1.7346    0.0000 C   0  0  0  0  0  0  0  0  0  0  0  0
    1.5306    0.8673    0.0000 C   0  0  0  0  0  0  0  0  0  0  0  0
    2.0408    0.0000    0.0000 C   0  0  0  0  0  0  0  0  0  0  0  0
    2.0408    1.7346    0.0000 C   0  0  0  0  0  0  0  0  0  0  0  0
    3.0101    1.7346    0.0000 C   0  0  0  0  0  0  0  0  0  0  0  0
    3.0101    2.7550    0.0000 C   0  0  0  0  0  0  0  0  0  0  0  0
    3.0101    0.7653    0.0000 C   0  0  0  0  0  0  0  0  0  0  0  0
    4.0305    1.7346    0.0000 C   0  0  0  0  0  0  0  0  0  0  0  0
  1  2  1  0  0  0  0 
  2  3  1  0  0  0  0 
  2  4  1  0  0  0  0 
  4  5  1  0  0  0  0 
  4  6  1  0  0  0  0 
  6  7  1  0  0  0  0 
  7  8  1  0  0  0  0 
  7  9  1  0  0  0  0 
  7 10  1  0  0  0  0 
M  END
> <Name>
2,2,4,5-TETRAMETHYLHEXANE

> <Source>
NIST2DMolFile

> <Tox>
0.780

> <CAS>
16747-42-5

$$$$

  CDK

 10  9  0  0  0  0  0  0  0  0999 V2000
    6.9070   -1.9961    0.0000 C   0  0  0  0  0  0  0  0  0  0  0  0
    5.7535   -1.3261    0.0000 S   0  0  0  0  0  0  0  0  0  0  0  0
    4.6069   -1.9961    0.0000 C   0  0  0  0  0  0  0  0  0  0  0  0
    4.6069   -3.3223    0.0000 C   0  0  0  0  0  0  0  0  0  0  0  0
    3.4535   -1.3261    0.0000 N   0  0  0  0  0  0  0  0  0  0  0  0
    2.3000   -1.9961    0.0000 O   0  0  0  0  0  0  0  0  0  0  0  0
    1.1535   -1.3261    0.0000 C   0  0  0  0  0  0  0  0  0  0  0  0
    1.1535   -0.0000    0.0000 O   0  0  0  0  0  0  0  0  0  0  0  0
    0.0000   -1.9961    0.0000 N   0  0  0  0  0  0  0  0  0  0  0  0
    0.0000   -3.3223    0.0000 C   0  0  0  0  0  0  0  0  0  0  0  0
  1  2  1  0  0  0  0 
  2  3  1  0  0  0  0 
  3  4  1  0  0  0  0 
  3  5  2  0  0  0  0 
  5  6  1  0  0  0  0 
  6  7  1  0  0  0  0 
  7  8  2  0  0  0  0 
  7  9  1  0  0  0  0 
  9 10  1  0  0  0  0 
M  END
> <Name>
METHOMYL

> <Source>
DSSTox2DMolFile

> <Tox>
-5.268

> <CAS>
16752-77-5

$$$$

  CDK

 19 20  0  0  0  0  0  0  0  0999 V2000
    1.4108    1.9650    0.0000 C   0  0  0  0  0  0  0  0  0  0  0  0
    1.9146    2.8216    0.0000 C   0  0  0  0  0  0  0  0  0  0  0  0
    0.5039    1.9650    0.0000 C   0  0  0  0  0  0  0  0  0  0  0  0
    1.4612    3.6277    0.0000 C   0  0  0  0  0  0  0  0  0  0  0  0
    2.8216    2.8216    0.0000 S   0  0  0  0  0  0  0  0  0  0  0  0
    0.0000    2.8216    0.0000 C   0  0  0  0  0  0  0  0  0  0  0  0
    0.5039    3.6277    0.0000 C   0  0  0  0  0  0  0  0  0  0  0  0
    3.4262    1.8139    0.0000 P   0  0  0  0  0  0  0  0  0  0  0  0
    2.8216    0.8062    0.0000 S   0  0  0  0  0  0  0  0  0  0  0  0
    4.0812    2.8216    0.0000 O   0  0  0  0  0  0  0  0  0  0  0  0
    4.1316    0.8062    0.0000 O   0  0  0  0  0  0  0  0  0  0  0  0
    1.8642    0.8062    0.0000 C   0  0  0  0  0  0  0  0  0  0  0  0
    5.1897    0.8062    0.0000 C   0  0  0  0  0  0  0  0  0  0  0  0
    1.3604    0.0000    0.0000 C   0  0  0  0  0  0  0  0  0  0  0  0
    1.4108    1.6123    0.0000 C   0  0  0  0  0  0  0  0  0  0  0  0
    5.7439    0.0000    0.0000 C   0  0  0  0  0  0  0  0  0  0  0  0
    0.4535    0.0000    0.0000 C   0  0  0  0  0  0  0  0  0  0  0  0
    0.4535    1.6123    0.0000 C   0  0  0  0  0  0  0  0  0  0  0  0
    0.0000    0.8062    0.0000 C   0  0  0  0  0  0  0  0  0  0  0  0
  2  1  2  0  0  0  0 
  1  3  1  0  0  0  0 
  4  2  1  0  0  0  0 
  2  5  1  0  0  0  0 
  3  6  2  0  0  0  0 
  7  4  2  0  0  0  0 
  5  8  1  0  0  0  0 
  6  7  1  0  0  0  0 
  9  8  1  0  0  0  0 
  8 10  2  0  0  0  0 
  8 11  1  0  0  0  0 
 12  9  1  0  0  0  0 
 11 13  1  0  0  0  0 
 12 14  2  0  0  0  0 
 15 12  1  0  0  0  0 
 13 16  1  0  0  0  0 
 14 17  1  0  0  0  0 
 18 15  2  0  0  0  0 
 17 19  2  0  0  0  0 
 19 18  1  0  0  0  0 
M  END
> <Name>
EDIFENPHOS

> <Source>
NIST2DMolFile

> <Tox>
-6.569

> <CAS>
17109-49-8

$$$$

  CDK

  8  7  0  0  0  0  0  0  0  0999 V2000
    1.3191   -0.2559    0.0000 C   0  0  0  0  0  0  0  0  0  0  0  0
    2.4108   -0.8813    0.0000 C   0  0  0  0  0  0  0  0  0  0  0  0
    0.0000   -1.1827    0.0000 N   0  0  0  0  0  0  0  0  0  0  0  0
    3.5025   -0.2559    0.0000 C   0  0  0  0  0  0  0  0  0  0  0  0
    2.4108   -2.1379    0.0000 C   0  0  0  0  0  0  0  0  0  0  0  0
    4.5941   -0.8813    0.0000 C   0  0  0  0  0  0  0  0  0  0  0  0
    3.5025   -2.7747    0.0000 C   0  0  0  0  0  0  0  0  0  0  0  0
    5.6858   -0.0000    0.0000 N   0  0  0  0  0  0  0  0  0  0  0  0
  1  2  1  0  0  0  0 
  1  3  3  0  0  0  0 
  2  4  1  0  0  0  0 
  2  5  1  0  0  0  0 
  4  6  1  0  0  0  0 
  5  7  1  0  0  0  0 
  6  8  3  0  0  0  0 
M  END
> <Name>
Butanedinitrile, ethyl-

> <Source>
DSSTox2DMolFile

> <Tox>
-1.721

> <CAS>
17611-82-4

$$$$

  CDK

  7  6  0  0  0  0  0  0  0  0999 V2000
    0.8635   -0.0724    0.6520 C   0  0  0  0  0  0  0  0  0  0  0  0
    1.8070    0.1892   -0.5237 C   0  0  0  0  0  0  0  0  0  0  0  0
   -0.5708   -0.2382    0.2042 C   0  0  0  0  0  0  0  0  0  0  0  0
    3.2481    0.3288   -0.0580 C   0  0  0  0  0  0  0  0  0  0  0  0
   -0.9702   -1.6425   -0.1664 C   0  0  0  0  0  0  0  0  0  0  0  0
   -1.4707    0.7624    0.1483 C   0  0  0  0  0  0  0  0  0  0  0  0
   -2.9069    0.6728   -0.2563 C   0  0  0  0  0  0  0  0  0  0  0  0
  1  2  1  0  0  0  0 
  1  3  1  0  0  0  0 
  2  4  1  0  0  0  0 
  3  5  1  0  0  0  0 
  3  6  2  0  0  0  0 
  6  7  1  0  0  0  0 
M  END
> <Name>
3-METHYL-2-HEXENE

> <Source>
Chemidplus3DMolFile

> <Tox>
1.703

> <CAS>
17618-77-8

$$$$

  CDK

 21 22  0  0  0  0  0  0  0  0999 V2000
    4.3220   -3.3476    0.0000 C   0  0  0  0  0  0  0  0  0  0  0  0
    3.5406   -2.2864    0.0000 N   0  0  0  0  0  0  0  0  0  0  0  0
    3.5406   -4.4378    0.0000 N   0  0  0  0  0  0  0  0  0  0  0  0
    5.6630   -3.3476    0.0000 N   0  0  0  0  0  0  0  0  0  0  0  0
    3.9747   -0.9937    0.0000 C   0  0  0  0  0  0  0  0  0  0  0  0
    2.2961   -2.6916    0.0000 C   0  0  0  0  0  0  0  0  0  0  0  0
    2.2961   -4.0326    0.0000 C   0  0  0  0  0  0  0  0  0  0  0  0
    6.3190   -4.4957    0.0000 C   0  0  0  0  0  0  0  0  0  0  0  0
    3.0775   -0.0000    0.0000 O   0  0  0  0  0  0  0  0  0  0  0  0
    5.2964   -0.7139    0.0000 N   0  0  0  0  0  0  0  0  0  0  0  0
    1.1480   -2.0356    0.0000 C   0  0  0  0  0  0  0  0  0  0  0  0
    1.1480   -4.6983    0.0000 C   0  0  0  0  0  0  0  0  0  0  0  0
    5.6630   -5.6437    0.0000 O   0  0  0  0  0  0  0  0  0  0  0  0
    7.6504   -4.4957    0.0000 O   0  0  0  0  0  0  0  0  0  0  0  0
    6.1357   -1.7269    0.0000 C   0  0  0  0  0  0  0  0  0  0  0  0
    0.0000   -2.6916    0.0000 C   0  0  0  0  0  0  0  0  0  0  0  0
    0.0000   -4.0326    0.0000 C   0  0  0  0  0  0  0  0  0  0  0  0
    8.3161   -5.6437    0.0000 C   0  0  0  0  0  0  0  0  0  0  0  0
    7.4671   -1.4761    0.0000 C   0  0  0  0  0  0  0  0  0  0  0  0
    8.3546   -2.4504    0.0000 C   0  0  0  0  0  0  0  0  0  0  0  0
    9.6474   -2.1996    0.0000 C   0  0  0  0  0  0  0  0  0  0  0  0
  1  2  1  0  0  0  0 
  1  3  2  0  0  0  0 
  1  4  1  0  0  0  0 
  2  5  1  0  0  0  0 
  2  6  1  0  0  0  0 
  3  7  1  0  0  0  0 
  4  8  1  0  0  0  0 
  5  9  2  0  0  0  0 
  5 10  1  0  0  0  0 
  6 11  1  0  0  0  0 
  6  7  2  0  0  0  0 
  7 12  1  0  0  0  0 
  8 13  2  0  0  0  0 
  8 14  1  0  0  0  0 
 10 15  1  0  0  0  0 
 11 16  2  0  0  0  0 
 12 17  2  0  0  0  0 
 14 18  1  0  0  0  0 
 15 19  1  0  0  0  0 
 16 17  1  0  0  0  0 
 19 20  1  0  0  0  0 
 20 21  1  0  0  0  0 
M  END
> <Name>
BENOMYL

> <Source>
DSSTox2DMolFile

> <Tox>
-8.432

> <CAS>
17804-35-2

$$$$

  CDK

 17 16  0  0  0  0  0  0  0  0999 V2000
    4.0485   -5.4007    0.0000 O   0  0  0  0  0  0  0  0  0  0  0  0
    4.0485   -4.0485    0.0000 Si  0  0  0  0  0  0  0  0  0  0  0  0
    4.0323   -6.7448    0.0000 Si  0  0  0  0  0  0  0  0  0  0  0  0
    2.6963   -4.0485    0.0000 O   0  0  0  0  0  0  0  0  0  0  0  0
    4.0485   -2.6963    0.0000 O   0  0  0  0  0  0  0  0  0  0  0  0
    5.4007   -4.0485    0.0000 C   0  0  0  0  0  0  0  0  0  0  0  0
    5.3845   -6.7610    0.0000 C   0  0  0  0  0  0  0  0  0  0  0  0
    4.0323   -8.0970    0.0000 C   0  0  0  0  0  0  0  0  0  0  0  0
    3.0202   -6.8744    0.0000 C   0  0  0  0  0  0  0  0  0  0  0  0
    1.3522   -4.0485    0.0000 Si  0  0  0  0  0  0  0  0  0  0  0  0
    4.0323   -1.3522    0.0000 Si  0  0  0  0  0  0  0  0  0  0  0  0
    1.3522   -2.6963    0.0000 C   0  0  0  0  0  0  0  0  0  0  0  0
    1.3522   -5.4007    0.0000 C   0  0  0  0  0  0  0  0  0  0  0  0
    0.0000   -4.0485    0.0000 C   0  0  0  0  0  0  0  0  0  0  0  0
    2.6801   -1.3684    0.0000 C   0  0  0  0  0  0  0  0  0  0  0  0
    4.0161   -0.0000    0.0000 C   0  0  0  0  0  0  0  0  0  0  0  0
    5.3845   -1.3846    0.0000 C   0  0  0  0  0  0  0  0  0  0  0  0
  1  2  1  0  0  0  0 
  1  3  1  0  0  0  0 
  2  4  1  0  0  0  0 
  2  5  1  0  0  0  0 
  2  6  1  0  0  0  0 
  3  7  1  0  0  0  0 
  3  8  1  0  0  0  0 
  3  9  1  0  0  0  0 
  4 10  1  0  0  0  0 
  5 11  1  0  0  0  0 
 10 12  1  0  0  0  0 
 10 13  1  0  0  0  0 
 10 14  1  0  0  0  0 
 11 15  1  0  0  0  0 
 11 16  1  0  0  0  0 
 11 17  1  0  0  0  0 
M  END
> <Name>
METHYLTRIS(TRIMETHYLSILOXY)SILANE

> <Source>
DSSTox2DMolFile

> <Tox>
-1.396

> <CAS>
17928-28-8

$$$$

  CDK

 24 23  0  0  0  0  0  0  0  0999 V2000
    0.0000    0.0000    0.0000 C   0  0  0  0  0  0  0  0  0  0  0  0
    0.8991    0.4995    0.0000 C   0  0  0  0  0  0  0  0  0  0  0  0
    1.7482    0.0000    0.0000 C   0  0  0  0  0  0  0  0  0  0  0  0
    2.6473    0.4995    0.0000 C   0  0  0  0  0  0  0  0  0  0  0  0
    3.4964    0.0000    0.0000 C   0  0  0  0  0  0  0  0  0  0  0  0
    4.3955    0.4995    0.0000 C   0  0  0  0  0  0  0  0  0  0  0  0
    5.2446    0.0000    0.0000 C   0  0  0  0  0  0  0  0  0  0  0  0
    6.1437    0.4995    0.0000 C   0  0  0  0  0  0  0  0  0  0  0  0
    6.9928    0.0000    0.0000 C   0  0  0  0  0  0  0  0  0  0  0  0
    7.8919    0.4995    0.0000 C   0  0  0  0  0  0  0  0  0  0  0  0
    8.7910    0.0000    0.0000 C   0  0  0  0  0  0  0  0  0  0  0  0
    9.6401    0.4995    0.0000 C   0  0  0  0  0  0  0  0  0  0  0  0
   10.4393    0.0000    0.0000 C   0  0  0  0  0  0  0  0  0  0  0  0
   11.3384    0.4995    0.0000 C   0  0  0  0  0  0  0  0  0  0  0  0
   12.1875    0.0000    0.0000 C   0  0  0  0  0  0  0  0  0  0  0  0
   13.0866    0.4995    0.0000 C   0  0  0  0  0  0  0  0  0  0  0  0
   13.9857    0.0000    0.0000 C   0  0  0  0  0  0  0  0  0  0  0  0
   14.8348    0.4995    0.0000 C   0  0  0  0  0  0  0  0  0  0  0  0
   15.7339    0.0000    0.0000 C   0  0  0  0  0  0  0  0  0  0  0  0
   16.6330    0.4995    0.0000 C   0  0  0  0  0  0  0  0  0  0  0  0
   17.4821    0.0000    0.0000 O   0  0  0  0  0  0  0  0  0  0  0  0
   16.6330    1.3486    0.0000 O   0  0  0  0  0  0  0  0  0  0  0  0
   18.3312    0.4995    0.0000 C   0  0  0  0  0  0  0  0  0  0  0  0
   19.2303    0.0000    0.0000 C   0  0  0  0  0  0  0  0  0  0  0  0
  1  2  1  0  0  0  0 
  2  3  1  0  0  0  0 
  3  4  1  0  0  0  0 
  4  5  1  0  0  0  0 
  5  6  1  0  0  0  0 
  7  6  1  0  0  0  0 
  8  7  1  0  0  0  0 
  8  9  1  0  0  0  0 
  9 10  1  0  0  0  0 
 11 10  1  0  0  0  0 
 12 11  1  0  0  0  0 
 12 13  1  0  0  0  0 
 13 14  1  0  0  0  0 
 15 14  1  0  0  0  0 
 16 15  1  0  0  0  0 
 16 17  1  0  0  0  0 
 17 18  1  0  0  0  0 
 19 18  1  0  0  0  0 
 20 19  1  0  0  0  0 
 20 21  1  0  0  0  0 
 20 22  2  0  0  0  0 
 21 23  1  0  0  0  0 
 24 23  1  0  0  0  0 
M  END
> <Name>
ETHYL EICOSANOATE

> <Source>
NIST2DMolFile

> <Tox>
-7.717

> <CAS>
18281-05-5

$$$$

  CDK

 15 16  0  0  0  0  0  0  0  0999 V2000
    4.2817    1.6928    0.0000 N   0  0  0  0  0  0  0  0  0  0  0  0
    4.7298    0.8464    0.0000 C   0  0  0  0  0  0  0  0  0  0  0  0
    4.7796    2.5890    0.0000 C   0  0  0  0  0  0  0  0  0  0  0  0
    3.2362    1.6928    0.0000 C   0  0  0  0  0  0  0  0  0  0  0  0
    5.7754    0.8464    0.0000 N   0  0  0  0  0  0  0  0  0  0  0  0
    4.2320    0.0000    0.0000 O   0  0  0  0  0  0  0  0  0  0  0  0
    2.6387    2.5392    0.0000 N   0  0  0  0  0  0  0  0  0  0  0  0
    2.6885    0.8962    0.0000 S   0  0  0  0  0  0  0  0  0  0  0  0
    6.2732    0.0000    0.0000 C   0  0  0  0  0  0  0  0  0  0  0  0
    1.7426    2.1907    0.0000 C   0  0  0  0  0  0  0  0  0  0  0  0
    1.7426    1.1949    0.0000 C   0  0  0  0  0  0  0  0  0  0  0  0
    0.8962    2.6885    0.0000 C   0  0  0  0  0  0  0  0  0  0  0  0
    0.8962    0.6970    0.0000 C   0  0  0  0  0  0  0  0  0  0  0  0
    0.0000    2.1907    0.0000 C   0  0  0  0  0  0  0  0  0  0  0  0
    0.0000    1.1949    0.0000 C   0  0  0  0  0  0  0  0  0  0  0  0
  1  2  1  0  0  0  0 
  1  3  1  0  0  0  0 
  1  4  1  0  0  0  0 
  2  5  1  0  0  0  0 
  2  6  2  0  0  0  0 
  7  4  2  0  0  0  0 
  4  8  1  0  0  0  0 
  5  9  1  0  0  0  0 
 10  7  1  0  0  0  0 
  8 11  1  0  0  0  0 
 11 10  2  0  0  0  0 
 12 10  1  0  0  0  0 
 11 13  1  0  0  0  0 
 14 12  2  0  0  0  0 
 13 15  2  0  0  0  0 
 15 14  1  0  0  0  0 
M  END
> <Name>
Methabenzthiazuron

> <Source>
NIST2DMolFile

> <Tox>
-6.947

> <CAS>
18691-97-9

$$$$

  CDK

 15 14  0  0  0  0  0  0  0  0999 V2000
   -9.3689   -0.6828   -0.0636 I   0  0  0  0  0  0  0  0  0  0  0  0
   -7.6029    0.5212   -0.1106 C   0  0  0  0  0  0  0  0  0  0  0  0
   -6.3243   -0.3145   -0.0319 C   0  0  0  0  0  0  0  0  0  0  0  0
   -5.0460    0.5313   -0.0535 C   0  0  0  0  0  0  0  0  0  0  0  0
   -3.7977   -0.3512    0.0404 C   0  0  0  0  0  0  0  0  0  0  0  0
   -2.5202    0.4898   -0.0072 C   0  0  0  0  0  0  0  0  0  0  0  0
   -1.2387   -0.3464    0.0522 C   0  0  0  0  0  0  0  0  0  0  0  0
    0.0378    0.4975    0.0787 C   0  0  0  0  0  0  0  0  0  0  0  0
    1.2860   -0.3882    0.1254 C   0  0  0  0  0  0  0  0  0  0  0  0
    2.5636    0.4543    0.1193 C   0  0  0  0  0  0  0  0  0  0  0  0
    3.8450   -0.3854    0.1415 C   0  0  0  0  0  0  0  0  0  0  0  0
    5.1214    0.4557    0.0622 C   0  0  0  0  0  0  0  0  0  0  0  0
    6.4009   -0.3869    0.0247 C   0  0  0  0  0  0  0  0  0  0  0  0
    7.7058    0.3956   -0.1416 C   0  0  0  0  0  0  0  0  0  0  0  0
    8.9383   -0.4900   -0.2358 C   0  0  0  0  0  0  0  0  0  0  0  0
  1  2  1  0  0  0  0 
  3  2  1  0  0  0  0 
  4  3  1  0  0  0  0 
  5  4  1  0  0  0  0 
  6  5  1  0  0  0  0 
  7  6  1  0  0  0  0 
  8  7  1  0  0  0  0 
  8  9  1  0  0  0  0 
  9 10  1  0  0  0  0 
 10 11  1  0  0  0  0 
 11 12  1  0  0  0  0 
 12 13  1  0  0  0  0 
 13 14  1  0  0  0  0 
 14 15  1  0  0  0  0 
M  END
> <Name>
1-IODOTETRADECANE

> <Source>
Chemidplus3DMolFile

> <Tox>
-3.848

> <CAS>
19218-94-1

$$$$

  CDK

  7  6  0  0  0  0  0  0  0  0999 V2000
    1.7409    1.4922    0.0000 C   0  0  0  0  0  0  0  0  0  0  0  0
    0.8953    0.9948    0.0000 C   0  0  0  0  0  0  0  0  0  0  0  0
    2.5864    0.9948    0.0000 C   0  0  0  0  0  0  0  0  0  0  0  0
    0.8953    0.0000    0.0000 Br  0  0  0  0  0  0  0  0  0  0  0  0
    0.0000    1.4922    0.0000 C   0  0  0  0  0  0  0  0  0  0  0  0
    2.5864    0.0000    0.0000 Br  0  0  0  0  0  0  0  0  0  0  0  0
    3.4818    1.4922    0.0000 C   0  0  0  0  0  0  0  0  0  0  0  0
  1  2  1  0  0  0  0 
  1  3  1  0  0  0  0 
  2  4  1  0  0  0  0 
  2  5  1  0  0  0  0 
  3  6  1  0  0  0  0 
  3  7  1  0  0  0  0 
M  END
> <Name>
1,2-DIBROMOPENTANE

> <Source>
NIST2DMolFile

> <Tox>
0.152

> <CAS>
19398-53-9

$$$$

  CDK

 20 22  0  0  0  0  0  0  0  0999 V2000
    6.9089   -3.9848    0.0000 C   0  0  0  0  0  0  0  0  0  0  0  0
    8.0711   -3.3299    0.0000 C   0  0  0  0  0  0  0  0  0  0  0  0
    5.7651   -3.3299    0.0000 C   0  0  0  0  0  0  0  0  0  0  0  0
    8.0711   -2.0016    0.0000 C   0  0  0  0  0  0  0  0  0  0  0  0
    9.2242   -3.9848    0.0000 Cl  0  0  0  0  0  0  0  0  0  0  0  0
    4.6121   -3.9848    0.0000 O   0  0  0  0  0  0  0  0  0  0  0  0
    5.7651   -2.0016    0.0000 C   0  0  0  0  0  0  0  0  0  0  0  0
    6.9089   -1.3283    0.0000 C   0  0  0  0  0  0  0  0  0  0  0  0
    9.2242   -1.3283    0.0000 Cl  0  0  0  0  0  0  0  0  0  0  0  0
    3.4591   -3.3299    0.0000 C   0  0  0  0  0  0  0  0  0  0  0  0
    4.6121   -1.3283    0.0000 O   0  0  0  0  0  0  0  0  0  0  0  0
    6.9089   -0.0000    0.0000 Cl  0  0  0  0  0  0  0  0  0  0  0  0
    2.3153   -3.9848    0.0000 C   0  0  0  0  0  0  0  0  0  0  0  0
    3.4591   -2.0016    0.0000 C   0  0  0  0  0  0  0  0  0  0  0  0
    1.1530   -3.3299    0.0000 C   0  0  0  0  0  0  0  0  0  0  0  0
    2.3153   -1.3283    0.0000 C   0  0  0  0  0  0  0  0  0  0  0  0
    1.1530   -2.0016    0.0000 C   0  0  0  0  0  0  0  0  0  0  0  0
    0.0000   -3.9848    0.0000 Cl  0  0  0  0  0  0  0  0  0  0  0  0
    2.3153   -0.0000    0.0000 Cl  0  0  0  0  0  0  0  0  0  0  0  0
    0.0000   -1.3283    0.0000 Cl  0  0  0  0  0  0  0  0  0  0  0  0
  1  2  2  0  0  0  0 
  1  3  1  0  0  0  0 
  4  2  1  0  0  0  0 
  2  5  1  0  0  0  0 
  6  3  1  0  0  0  0 
  3  7  2  0  0  0  0 
  8  4  2  0  0  0  0 
  4  9  1  0  0  0  0 
 10  6  1  0  0  0  0 
 11  7  1  0  0  0  0 
  7  8  1  0  0  0  0 
  8 12  1  0  0  0  0 
 13 10  2  0  0  0  0 
 10 14  1  0  0  0  0 
 14 11  1  0  0  0  0 
 15 13  1  0  0  0  0 
 16 14  2  0  0  0  0 
 17 15  2  0  0  0  0 
 15 18  1  0  0  0  0 
 16 17  1  0  0  0  0 
 16 19  1  0  0  0  0 
 17 20  1  0  0  0  0 
M  END
> <Name>
1,2,3,7,8,9-HEXACHLORODIBENZO-P-DIOXIN

> <Source>
DSSTox2DMolFile

> <Tox>
-10.312

> <CAS>
19408-74-3

$$$$

  CDK

 14 15  0  0  0  0  0  0  0  0999 V2000
    5.7583   -1.3302    0.0000 Cl  0  0  0  0  0  0  0  0  0  0  0  0
    4.6067   -1.9981    0.0000 C   0  0  0  0  0  0  0  0  0  0  0  0
    4.6067   -3.3283    0.0000 C   0  0  0  0  0  0  0  0  0  0  0  0
    3.4550   -1.3302    0.0000 C   0  0  0  0  0  0  0  0  0  0  0  0
    5.7583   -3.9905    0.0000 Cl  0  0  0  0  0  0  0  0  0  0  0  0
    3.4550   -3.9905    0.0000 C   0  0  0  0  0  0  0  0  0  0  0  0
    2.3033   -1.9981    0.0000 C   0  0  0  0  0  0  0  0  0  0  0  0
    3.4550   -0.0000    0.0000 Cl  0  0  0  0  0  0  0  0  0  0  0  0
    3.4550   -5.3207    0.0000 Cl  0  0  0  0  0  0  0  0  0  0  0  0
    2.3033   -3.3283    0.0000 C   0  0  0  0  0  0  0  0  0  0  0  0
    1.1517   -1.3302    0.0000 C   0  0  0  0  0  0  0  0  0  0  0  0
    1.1517   -3.9905    0.0000 C   0  0  0  0  0  0  0  0  0  0  0  0
    0.0000   -1.9981    0.0000 C   0  0  0  0  0  0  0  0  0  0  0  0
    0.0000   -3.3283    0.0000 C   0  0  0  0  0  0  0  0  0  0  0  0
  1  2  1  0  0  0  0 
  2  3  2  0  0  0  0 
  2  4  1  0  0  0  0 
  3  5  1  0  0  0  0 
  3  6  1  0  0  0  0 
  7  4  2  0  0  0  0 
  4  8  1  0  0  0  0 
  6  9  1  0  0  0  0 
  6 10  2  0  0  0  0 
 10  7  1  0  0  0  0 
 11  7  1  0  0  0  0 
 10 12  1  0  0  0  0 
 13 11  2  0  0  0  0 
 12 14  2  0  0  0  0 
 14 13  1  0  0  0  0 
M  END
> <Name>
1,2,3,4-TETRACHLORONAPHTHALENE

> <Source>
DSSTox2DMolFile

> <Tox>
-5.538

> <CAS>
20020-02-4

$$$$

  CDK

 16 17  0  0  0  0  0  0  0  0999 V2000
    1.7603    0.9556    0.0000 C   0  0  0  0  0  0  0  0  0  0  0  0
    2.0621    0.0000    0.0000 O   0  0  0  0  0  0  0  0  0  0  0  0
    2.3136    1.7100    0.0000 N   0  0  0  0  0  0  0  0  0  0  0  0
    0.8047    1.2071    0.0000 N   0  0  0  0  0  0  0  0  0  0  0  0
    1.7603    2.5148    0.0000 O   0  0  0  0  0  0  0  0  0  0  0  0
    3.3195    1.7100    0.0000 C   0  0  0  0  0  0  0  0  0  0  0  0
    0.0000    0.6538    0.0000 C   0  0  0  0  0  0  0  0  0  0  0  0
    0.8047    2.2633    0.0000 C   0  0  0  0  0  0  0  0  0  0  0  0
    3.8224    2.6154    0.0000 C   0  0  0  0  0  0  0  0  0  0  0  0
    3.8224    0.8550    0.0000 C   0  0  0  0  0  0  0  0  0  0  0  0
    0.0000    2.8668    0.0000 O   0  0  0  0  0  0  0  0  0  0  0  0
    4.8283    2.6154    0.0000 C   0  0  0  0  0  0  0  0  0  0  0  0
    4.8283    0.8550    0.0000 C   0  0  0  0  0  0  0  0  0  0  0  0
    5.3313    3.4704    0.0000 Cl  0  0  0  0  0  0  0  0  0  0  0  0
    5.3313    1.7100    0.0000 C   0  0  0  0  0  0  0  0  0  0  0  0
    6.3372    1.7100    0.0000 Cl  0  0  0  0  0  0  0  0  0  0  0  0
  1  2  2  0  0  0  0 
  1  3  1  0  0  0  0 
  4  1  1  0  0  0  0 
  3  5  1  0  0  0  0 
  3  6  1  0  0  0  0 
  4  7  1  0  0  0  0 
  8  4  1  0  0  0  0 
  5  8  1  0  0  0  0 
  9  6  2  0  0  0  0 
  6 10  1  0  0  0  0 
  8 11  2  0  0  0  0 
 12  9  1  0  0  0  0 
 10 13  2  0  0  0  0 
 12 14  1  0  0  0  0 
 15 12  2  0  0  0  0 
 13 15  1  0  0  0  0 
 15 16  1  0  0  0  0 
M  END
> <Name>
METHAZOLE

> <Source>
NIST2DMolFile

> <Tox>
-6.000

> <CAS>
20354-26-1

$$$$

  CDK

 13 13  0  0  0  0  0  0  0  0999 V2000
    3.4201    1.0059    0.0000 P   0  0  0  0  0  0  0  0  0  0  0  0
    4.2752    1.5089    0.0000 O   0  0  0  0  0  0  0  0  0  0  0  0
    2.4142    1.0059    0.0000 N   0  0  0  0  0  0  0  0  0  0  0  0
    3.4201    0.0000    0.0000 O   0  0  0  0  0  0  0  0  0  0  0  0
    3.4201    2.0118    0.0000 O   0  0  0  0  0  0  0  0  0  0  0  0
    5.1805    1.0059    0.0000 C   0  0  0  0  0  0  0  0  0  0  0  0
    1.4083    1.0059    0.0000 C   0  0  0  0  0  0  0  0  0  0  0  0
    4.2752    2.4645    0.0000 C   0  0  0  0  0  0  0  0  0  0  0  0
    6.0355    1.5089    0.0000 C   0  0  0  0  0  0  0  0  0  0  0  0
    0.7041    1.7101    0.0000 S   0  0  0  0  0  0  0  0  0  0  0  0
    0.7041    0.3018    0.0000 S   0  0  0  0  0  0  0  0  0  0  0  0
    4.2752    3.4704    0.0000 C   0  0  0  0  0  0  0  0  0  0  0  0
    0.0000    1.0059    0.0000 C   0  0  0  0  0  0  0  0  0  0  0  0
  1  2  1  0  0  0  0 
  1  3  1  0  0  0  0 
  1  4  2  0  0  0  0 
  1  5  1  0  0  0  0 
  2  6  1  0  0  0  0 
  3  7  2  0  0  0  0 
  5  8  1  0  0  0  0 
  6  9  1  0  0  0  0 
 10  7  1  0  0  0  0 
  7 11  1  0  0  0  0 
  8 12  1  0  0  0  0 
 13 10  1  0  0  0  0 
 11 13  1  0  0  0  0 
M  END
> <Name>
FOSTHIETAN

> <Source>
NIST2DMolFile

> <Tox>
-5.190

> <CAS>
21548-32-3

$$$$

  CDK

 19 19  0  0  0  0  0  0  0  0999 V2000
    3.3148   -3.3239    0.0000 P   0  0  0  0  0  0  0  0  0  0  0  0
    1.9889   -3.3239    0.0000 N   0  0  0  0  0  0  0  0  0  0  0  0
    3.3148   -4.6499    0.0000 O   0  0  0  0  0  0  0  0  0  0  0  0
    4.6408   -3.3239    0.0000 O   0  0  0  0  0  0  0  0  0  0  0  0
    3.3148   -1.9980    0.0000 O   0  0  0  0  0  0  0  0  0  0  0  0
    1.3169   -2.1705    0.0000 C   0  0  0  0  0  0  0  0  0  0  0  0
    4.4773   -5.3310    0.0000 C   0  0  0  0  0  0  0  0  0  0  0  0
    4.4682   -1.3350    0.0000 C   0  0  0  0  0  0  0  0  0  0  0  0
    1.9889   -1.0172    0.0000 C   0  0  0  0  0  0  0  0  0  0  0  0
    0.0000   -2.1705    0.0000 C   0  0  0  0  0  0  0  0  0  0  0  0
    4.4773   -6.6660    0.0000 C   0  0  0  0  0  0  0  0  0  0  0  0
    5.6216   -4.6680    0.0000 C   0  0  0  0  0  0  0  0  0  0  0  0
    4.4682   -0.0000    0.0000 C   0  0  0  0  0  0  0  0  0  0  0  0
    5.6216   -7.3199    0.0000 C   0  0  0  0  0  0  0  0  0  0  0  0
    6.7750   -5.3310    0.0000 C   0  0  0  0  0  0  0  0  0  0  0  0
    5.6216   -8.6549    0.0000 C   0  0  0  0  0  0  0  0  0  0  0  0
    6.7750   -6.6660    0.0000 C   0  0  0  0  0  0  0  0  0  0  0  0
    7.9375   -7.3381    0.0000 S   0  0  0  0  0  0  0  0  0  0  0  0
    9.0818   -6.6751    0.0000 C   0  0  0  0  0  0  0  0  0  0  0  0
  1  2  1  0  0  0  0 
  1  3  1  0  0  0  0 
  1  4  2  0  0  0  0 
  1  5  1  0  0  0  0 
  2  6  1  0  0  0  0 
  3  7  1  0  0  0  0 
  5  8  1  0  0  0  0 
  6  9  1  0  0  0  0 
  6 10  1  0  0  0  0 
 11  7  1  0  0  0  0 
  7 12  2  0  0  0  0 
  8 13  1  0  0  0  0 
 14 11  2  0  0  0  0 
 15 12  1  0  0  0  0 
 14 16  1  0  0  0  0 
 14 17  1  0  0  0  0 
 17 15  2  0  0  0  0 
 17 18  1  0  0  0  0 
 18 19  1  0  0  0  0 
M  END
> <Name>
FENAMIPHOS

> <Source>
DSSTox2DMolFile

> <Tox>
-6.000

> <CAS>
22224-92-6

$$$$

  CDK

 11 11  0  0  0  0  0  0  0  0999 V2000
   -3.2997    0.1538   -0.2276 O   0  0  0  0  0  0  0  0  0  0  0  0
   -2.2461   -0.4767   -0.0429 C   0  0  0  0  0  0  0  0  0  0  0  0
   -0.9353    0.1503    0.0159 C   0  0  0  0  0  0  0  0  0  0  0  0
   -2.3518   -1.9823    0.1297 C   0  0  0  0  0  0  0  0  0  0  0  0
    0.2025   -0.6283    0.2278 C   0  0  0  0  0  0  0  0  0  0  0  0
   -0.8163    1.5313   -0.1402 C   0  0  0  0  0  0  0  0  0  0  0  0
    1.4593   -0.0261    0.2834 C   0  0  0  0  0  0  0  0  0  0  0  0
    0.4406    2.1335   -0.0843 C   0  0  0  0  0  0  0  0  0  0  0  0
    2.6762   -0.8588    0.5087 C   0  0  0  0  0  0  0  0  0  0  0  0
    1.5784    1.3549    0.1275 C   0  0  0  0  0  0  0  0  0  0  0  0
    3.2923   -1.3516   -0.7980 C   0  0  0  0  0  0  0  0  0  0  0  0
  1  2  2  0  0  0  0 
  3  2  1  0  0  0  0 
  2  4  1  0  0  0  0 
  5  3  1  0  0  0  0 
  3  6  2  0  0  0  0 
  7  5  2  0  0  0  0 
  6  8  1  0  0  0  0 
  7  9  1  0  0  0  0 
  7 10  1  0  0  0  0 
 10  8  2  0  0  0  0 
  9 11  1  0  0  0  0 
M  END
> <Name>
3-ETHYLACETOPHENONE

> <Source>
Chemidplus3DMolFile

> <Tox>
0.358

> <CAS>
22699-70-3

$$$$

  CDK

 16 17  0  0  0  0  0  0  0  0999 V2000
    4.7171   -2.4151    0.0000 O   0  0  0  0  0  0  0  0  0  0  0  0
    5.5021   -1.3306    0.0000 C   0  0  0  0  0  0  0  0  0  0  0  0
    3.4530   -1.9959    0.0000 C   0  0  0  0  0  0  0  0  0  0  0  0
    4.7171   -0.2528    0.0000 O   0  0  0  0  0  0  0  0  0  0  0  0
    6.6531   -0.6720    0.0000 C   0  0  0  0  0  0  0  0  0  0  0  0
    6.6531   -1.9959    0.0000 C   0  0  0  0  0  0  0  0  0  0  0  0
    3.4530   -0.6720    0.0000 C   0  0  0  0  0  0  0  0  0  0  0  0
    2.3020   -2.6679    0.0000 C   0  0  0  0  0  0  0  0  0  0  0  0
    2.3020   -0.0000    0.0000 C   0  0  0  0  0  0  0  0  0  0  0  0
    1.1510   -1.9959    0.0000 C   0  0  0  0  0  0  0  0  0  0  0  0
    2.3020   -3.9985    0.0000 O   0  0  0  0  0  0  0  0  0  0  0  0
    1.1510   -0.6720    0.0000 C   0  0  0  0  0  0  0  0  0  0  0  0
    1.1510   -4.6572    0.0000 C   0  0  0  0  0  0  0  0  0  0  0  0
    0.0000   -3.9985    0.0000 O   0  0  0  0  0  0  0  0  0  0  0  0
    1.1510   -5.9811    0.0000 N   0  0  0  0  0  0  0  0  0  0  0  0
    0.0000   -6.6531    0.0000 C   0  0  0  0  0  0  0  0  0  0  0  0
  1  2  1  0  0  0  0 
  1  3  1  0  0  0  0 
  2  4  1  0  0  0  0 
  2  5  1  0  0  0  0 
  2  6  1  0  0  0  0 
  7  3  2  0  0  0  0 
  3  8  1  0  0  0  0 
  4  7  1  0  0  0  0 
  7  9  1  0  0  0  0 
  8 10  2  0  0  0  0 
  8 11  1  0  0  0  0 
 12  9  2  0  0  0  0 
 10 12  1  0  0  0  0 
 11 13  1  0  0  0  0 
 13 14  2  0  0  0  0 
 13 15  1  0  0  0  0 
 15 16  1  0  0  0  0 
M  END
> <Name>
BENDIOCARB

> <Source>
DSSTox2DMolFile

> <Tox>
-4.462

> <CAS>
22781-23-3

$$$$

  CDK

 15 16  0  0  0  0  0  0  0  0999 V2000
   -0.3129    1.9286    0.0904 N   0  0  0  0  0  0  0  0  0  0  0  0
   -0.9322    0.7011    0.2280 C   0  0  0  0  0  0  0  0  0  0  0  0
    1.0417    1.9268   -0.0105 C   0  0  0  0  0  0  0  0  0  0  0  0
   -0.2433   -0.4865    0.2441 N   0  0  0  0  0  0  0  0  0  0  0  0
   -2.3131    0.7243    0.4407 N   0  0  0  0  0  0  0  0  0  0  0  0
    1.7961    0.7984    0.0085 N   0  0  0  0  0  0  0  0  0  0  0  0
    1.8284    3.4078   -0.1816 Cl  0  0  0  0  0  0  0  0  0  0  0  0
    1.1252   -0.4028    0.1487 C   0  0  0  0  0  0  0  0  0  0  0  0
   -3.1202   -0.4751    0.2249 C   0  0  0  0  0  0  0  0  0  0  0  0
    1.9165   -1.5426    0.2810 N   0  0  0  0  0  0  0  0  0  0  0  0
   -4.6135   -0.3666    0.3923 C   0  0  0  0  0  0  0  0  0  0  0  0
   -4.0326   -0.5761   -0.9733 C   0  0  0  0  0  0  0  0  0  0  0  0
    1.3647   -2.9096    0.0557 C   0  0  0  0  0  0  0  0  0  0  0  0
    2.1829   -3.9061    0.8702 C   0  0  0  0  0  0  0  0  0  0  0  0
    1.3859   -3.2923   -1.4208 C   0  0  0  0  0  0  0  0  0  0  0  0
  1  2  1  0  0  0  0 
  1  3  2  0  0  0  0 
  2  4  2  0  0  0  0 
  2  5  1  0  0  0  0 
  6  3  1  0  0  0  0 
  3  7  1  0  0  0  0 
  4  8  1  0  0  0  0 
  5  9  1  0  0  0  0 
  8  6  2  0  0  0  0 
  8 10  1  0  0  0  0 
  9 11  1  0  0  0  0 
  9 12  1  0  0  0  0 
 10 13  1  0  0  0  0 
 11 12  1  0  0  0  0 
 13 14  1  0  0  0  0 
 13 15  1  0  0  0  0 
M  END
> <Name>
CYPRAZINE

> <Source>
DougDB3DMolFile

> <Tox>
-6.523

> <CAS>
22936-86-3

$$$$

  CDK

 17 17  0  0  0  0  0  0  0  0999 V2000
    5.7554   -3.9965    0.0000 N   0  0  0  0  0  0  0  0  0  0  0  0
    4.6043   -3.3243    0.0000 C   0  0  0  0  0  0  0  0  0  0  0  0
    6.9065   -3.3243    0.0000 C   0  0  0  0  0  0  0  0  0  0  0  0
    3.4532   -3.9965    0.0000 O   0  0  0  0  0  0  0  0  0  0  0  0
    4.6043   -1.9983    0.0000 C   0  0  0  0  0  0  0  0  0  0  0  0
    6.9065   -1.9983    0.0000 N   0  0  0  0  0  0  0  0  0  0  0  0
    8.0575   -3.9965    0.0000 N   0  0  0  0  0  0  0  0  0  0  0  0
    2.3022   -3.3243    0.0000 C   0  0  0  0  0  0  0  0  0  0  0  0
    3.4532   -1.3445    0.0000 C   0  0  0  0  0  0  0  0  0  0  0  0
    5.7554   -1.3445    0.0000 C   0  0  0  0  0  0  0  0  0  0  0  0
    8.0575   -5.3226    0.0000 C   0  0  0  0  0  0  0  0  0  0  0  0
    9.2086   -3.3243    0.0000 C   0  0  0  0  0  0  0  0  0  0  0  0
    1.1511   -3.9965    0.0000 N   0  0  0  0  0  0  0  0  0  0  0  0
    2.3022   -1.9983    0.0000 O   0  0  0  0  0  0  0  0  0  0  0  0
    5.7554   -0.0000    0.0000 C   0  0  0  0  0  0  0  0  0  0  0  0
    1.1511   -5.3226    0.0000 C   0  0  0  0  0  0  0  0  0  0  0  0
    0.0000   -3.3243    0.0000 C   0  0  0  0  0  0  0  0  0  0  0  0
  1  2  1  0  0  0  0 
  1  3  2  0  0  0  0 
  2  4  1  0  0  0  0 
  2  5  2  0  0  0  0 
  3  6  1  0  0  0  0 
  3  7  1  0  0  0  0 
  4  8  1  0  0  0  0 
  5  9  1  0  0  0  0 
  5 10  1  0  0  0  0 
  6 10  2  0  0  0  0 
  7 11  1  0  0  0  0 
  7 12  1  0  0  0  0 
  8 13  1  0  0  0  0 
  8 14  2  0  0  0  0 
 10 15  1  0  0  0  0 
 13 16  1  0  0  0  0 
 13 17  1  0  0  0  0 
M  END
> <Name>
PIRIMICARB

> <Source>
DSSTox2DMolFile

> <Tox>
-5.138

> <CAS>
23103-98-2

$$$$

  CDK

 21 21  0  0  0  0  0  0  0  0999 V2000
    3.4459   -1.9863    0.0000 N   0  0  0  0  0  0  0  0  0  0  0  0
    2.3096   -2.6791    0.0000 C   0  0  0  0  0  0  0  0  0  0  0  0
    3.4459   -0.6559    0.0000 C   0  0  0  0  0  0  0  0  0  0  0  0
    4.6192   -2.6791    0.0000 C   0  0  0  0  0  0  0  0  0  0  0  0
    2.3096   -4.0095    0.0000 C   0  0  0  0  0  0  0  0  0  0  0  0
    1.1363   -1.9863    0.0000 C   0  0  0  0  0  0  0  0  0  0  0  0
    2.3096   -0.0000    0.0000 O   0  0  0  0  0  0  0  0  0  0  0  0
    4.6192   -0.0000    0.0000 C   0  0  0  0  0  0  0  0  0  0  0  0
    4.6192   -4.0095    0.0000 O   0  0  0  0  0  0  0  0  0  0  0  0
    1.1363   -4.6654    0.0000 C   0  0  0  0  0  0  0  0  0  0  0  0
    3.4459   -4.6654    0.0000 C   0  0  0  0  0  0  0  0  0  0  0  0
    0.0000   -2.6791    0.0000 C   0  0  0  0  0  0  0  0  0  0  0  0
    1.1363   -0.6559    0.0000 C   0  0  0  0  0  0  0  0  0  0  0  0
    5.7555   -0.6559    0.0000 Cl  0  0  0  0  0  0  0  0  0  0  0  0
    5.7555   -4.6654    0.0000 C   0  0  0  0  0  0  0  0  0  0  0  0
    0.0000   -4.0095    0.0000 C   0  0  0  0  0  0  0  0  0  0  0  0
    3.4459   -5.9957    0.0000 C   0  0  0  0  0  0  0  0  0  0  0  0
    0.0000   -0.0000    0.0000 C   0  0  0  0  0  0  0  0  0  0  0  0
    6.9288   -4.0095    0.0000 C   0  0  0  0  0  0  0  0  0  0  0  0
    8.0836   -4.6654    0.0000 C   0  0  0  0  0  0  0  0  0  0  0  0
    9.2384   -4.0095    0.0000 C   0  0  0  0  0  0  0  0  0  0  0  0
  1  2  1  0  0  0  0 
  1  3  1  0  0  0  0 
  1  4  1  0  0  0  0 
  2  5  1  0  0  0  0 
  2  6  2  0  0  0  0 
  3  7  2  0  0  0  0 
  3  8  1  0  0  0  0 
  4  9  1  0  0  0  0 
  5 10  2  0  0  0  0 
  5 11  1  0  0  0  0 
  6 12  1  0  0  0  0 
  6 13  1  0  0  0  0 
  8 14  1  0  0  0  0 
  9 15  1  0  0  0  0 
 16 10  1  0  0  0  0 
 11 17  1  0  0  0  0 
 16 12  2  0  0  0  0 
 13 18  1  0  0  0  0 
 15 19  1  0  0  0  0 
 19 20  1  0  0  0  0 
 20 21  1  0  0  0  0 
M  END
> <Name>
BUTACHLOR

> <Source>
DSSTox2DMolFile

> <Tox>
-5.538

> <CAS>
23184-66-9

$$$$

  CDK

  9  8  0  0  0  0  0  0  0  0999 V2000
   -1.1498   -0.7123    0.3163 C   0  0  0  0  0  0  0  0  0  0  0  0
   -2.3419    0.0125   -0.3490 C   0  0  0  0  0  0  0  0  0  0  0  0
    0.0305   -0.1787   -0.2625 O   0  0  0  0  0  0  0  0  0  0  0  0
   -3.6419   -0.6972    0.0147 C   0  0  0  0  0  0  0  0  0  0  0  0
   -2.4612    1.3475    0.1048 O   0  0  0  0  0  0  0  0  0  0  0  0
    1.2201   -0.6843    0.3256 C   0  0  0  0  0  0  0  0  0  0  0  0
    2.4041    0.0375   -0.3341 C   0  0  0  0  0  0  0  0  0  0  0  0
    3.6815   -0.7413   -0.0645 C   0  0  0  0  0  0  0  0  0  0  0  0
    2.5339    1.4606    0.1831 C   0  0  0  0  0  0  0  0  0  0  0  0
  1  2  1  0  0  0  0 
  1  3  1  0  0  0  0 
  2  4  1  0  0  0  0 
  2  5  1  0  0  0  0 
  3  6  1  0  0  0  0 
  6  7  1  0  0  0  0 
  7  8  1  0  0  0  0 
  7  9  1  0  0  0  0 
M  END
> <Name>
1-ISOBUTOXY-2-PROPANOL

> <Source>
DougDB3DMolFile

> <Tox>
0.114

> <CAS>
23436-19-3

$$$$

  CDK

 21 21  0  0  0  0  0  0  0  0999 V2000
    4.5018    3.5014    0.0000 O   0  0  0  0  0  0  0  0  0  0  0  0
    5.5022    3.5014    0.0000 P   0  0  0  0  0  0  0  0  0  0  0  0
    4.0016    2.6010    0.0000 C   0  0  0  0  0  0  0  0  0  0  0  0
    6.5025    3.5014    0.0000 O   0  0  0  0  0  0  0  0  0  0  0  0
    5.5022    4.5018    0.0000 O   0  0  0  0  0  0  0  0  0  0  0  0
    5.5022    2.5010    0.0000 S   0  0  0  0  0  0  0  0  0  0  0  0
    3.0012    2.6010    0.0000 N   0  0  0  0  0  0  0  0  0  0  0  0
    4.5018    1.7507    0.0000 C   0  0  0  0  0  0  0  0  0  0  0  0
    7.0027    2.6010    0.0000 C   0  0  0  0  0  0  0  0  0  0  0  0
    6.3525    5.0020    0.0000 C   0  0  0  0  0  0  0  0  0  0  0  0
    2.5010    1.7507    0.0000 C   0  0  0  0  0  0  0  0  0  0  0  0
    4.0016    0.9004    0.0000 C   0  0  0  0  0  0  0  0  0  0  0  0
    8.0031    2.6010    0.0000 C   0  0  0  0  0  0  0  0  0  0  0  0
    6.3525    6.0024    0.0000 C   0  0  0  0  0  0  0  0  0  0  0  0
    1.5006    1.7507    0.0000 N   0  0  0  0  0  0  0  0  0  0  0  0
    3.0012    0.9004    0.0000 N   0  0  0  0  0  0  0  0  0  0  0  0
    4.5018    0.0000    0.0000 C   0  0  0  0  0  0  0  0  0  0  0  0
    1.0004    2.6010    0.0000 C   0  0  0  0  0  0  0  0  0  0  0  0
    1.0004    0.9004    0.0000 C   0  0  0  0  0  0  0  0  0  0  0  0
    0.0000    2.6010    0.0000 C   0  0  0  0  0  0  0  0  0  0  0  0
    0.0000    0.9004    0.0000 C   0  0  0  0  0  0  0  0  0  0  0  0
  1  2  1  0  0  0  0 
  1  3  1  0  0  0  0 
  2  4  1  0  0  0  0 
  2  5  1  0  0  0  0 
  2  6  2  0  0  0  0 
  3  7  2  0  0  0  0 
  8  3  1  0  0  0  0 
  4  9  1  0  0  0  0 
  5 10  1  0  0  0  0 
  7 11  1  0  0  0  0 
 12  8  2  0  0  0  0 
  9 13  1  0  0  0  0 
 10 14  1  0  0  0  0 
 11 15  1  0  0  0  0 
 11 16  2  0  0  0  0 
 16 12  1  0  0  0  0 
 12 17  1  0  0  0  0 
 15 18  1  0  0  0  0 
 15 19  1  0  0  0  0 
 18 20  1  0  0  0  0 
 19 21  1  0  0  0  0 
M  END
> <Name>
PIRIMIPHOS ETHYL

> <Source>
NIST2DMolFile

> <Tox>
-3.538

> <CAS>
23505-41-1

$$$$

  CDK

 15 16  0  0  0  0  0  0  0  0999 V2000
    0.0000    1.3399    0.0000 C   0  0  0  0  0  0  0  0  0  0  0  0
    0.4963    2.2332    0.0000 O   0  0  0  0  0  0  0  0  0  0  0  0
    1.4888    2.2332    0.0000 P   0  0  0  0  0  0  0  0  0  0  0  0
    1.4888    3.2257    0.0000 O   0  0  0  0  0  0  0  0  0  0  0  0
    1.4888    1.2407    0.0000 O   0  0  0  0  0  0  0  0  0  0  0  0
    2.4813    2.2332    0.0000 O   0  0  0  0  0  0  0  0  0  0  0  0
    0.5955    3.7220    0.0000 C   0  0  0  0  0  0  0  0  0  0  0  0
    3.1761    1.4888    0.0000 C   0  0  0  0  0  0  0  0  0  0  0  0
    3.1761    0.4963    0.0000 C   0  0  0  0  0  0  0  0  0  0  0  0
    4.1687    1.4888    0.0000 C   0  0  0  0  0  0  0  0  0  0  0  0
    2.3325    0.0000    0.0000 Cl  0  0  0  0  0  0  0  0  0  0  0  0
    4.1687    0.4963    0.0000 C   0  0  0  0  0  0  0  0  0  0  0  0
    5.1116    1.8362    0.0000 C   0  0  0  0  0  0  0  0  0  0  0  0
    5.1116    0.1985    0.0000 C   0  0  0  0  0  0  0  0  0  0  0  0
    5.7071    0.9925    0.0000 C   0  0  0  0  0  0  0  0  0  0  0  0
  1  2  1  0  0  0  0 
  2  3  1  0  0  0  0 
  4  3  1  0  0  0  0 
  5  3  2  0  0  0  0 
  3  6  1  0  0  0  0 
  7  4  1  0  0  0  0 
  6  8  1  0  0  0  0 
  9  8  2  0  0  0  0 
  8 10  1  0  0  0  0 
 11  9  1  0  0  0  0 
 12  9  1  0  0  0  0 
 10 13  1  0  0  0  0 
 10 12  1  0  0  0  0 
 14 12  1  0  0  0  0 
 13 15  1  0  0  0  0 
 15 14  2  0  0  0  0 
M  END
> <Name>
Heptenophos

> <Source>
NIST2DMolFile

> <Tox>
-2.893

> <CAS>
23560-59-0

$$$$

  CDK

 22 22  0  0  0  0  0  0  0  0999 V2000
    3.4629   -0.6649    0.0000 C   0  0  0  0  0  0  0  0  0  0  0  0
    4.6449   -0.0000    0.0000 N   0  0  0  0  0  0  0  0  0  0  0  0
    3.4629   -2.0038    0.0000 N   0  0  0  0  0  0  0  0  0  0  0  0
    2.3178   -0.0000    0.0000 S   0  0  0  0  0  0  0  0  0  0  0  0
    5.7714   -0.6649    0.0000 C   0  0  0  0  0  0  0  0  0  0  0  0
    2.2901   -2.5764    0.0000 C   0  0  0  0  0  0  0  0  0  0  0  0
    5.7714   -2.0038    0.0000 O   0  0  0  0  0  0  0  0  0  0  0  0
    6.9073   -0.0000    0.0000 O   0  0  0  0  0  0  0  0  0  0  0  0
    2.2901   -3.8969    0.0000 C   0  0  0  0  0  0  0  0  0  0  0  0
    1.1358   -1.9207    0.0000 C   0  0  0  0  0  0  0  0  0  0  0  0
    8.0800   -0.6649    0.0000 C   0  0  0  0  0  0  0  0  0  0  0  0
    3.4998   -4.6264    0.0000 N   0  0  0  0  0  0  0  0  0  0  0  0
    1.1358   -4.5525    0.0000 C   0  0  0  0  0  0  0  0  0  0  0  0
    0.0000   -2.5764    0.0000 C   0  0  0  0  0  0  0  0  0  0  0  0
    4.6449   -3.9523    0.0000 C   0  0  0  0  0  0  0  0  0  0  0  0
    0.0000   -3.8969    0.0000 C   0  0  0  0  0  0  0  0  0  0  0  0
    5.7714   -4.6264    0.0000 N   0  0  0  0  0  0  0  0  0  0  0  0
    4.6449   -2.6318    0.0000 S   0  0  0  0  0  0  0  0  0  0  0  0
    6.9165   -3.9523    0.0000 C   0  0  0  0  0  0  0  0  0  0  0  0
    6.9165   -2.6318    0.0000 O   0  0  0  0  0  0  0  0  0  0  0  0
    8.0616   -4.6264    0.0000 O   0  0  0  0  0  0  0  0  0  0  0  0
    9.2343   -3.9523    0.0000 C   0  0  0  0  0  0  0  0  0  0  0  0
  1  2  1  0  0  0  0 
  1  3  1  0  0  0  0 
  1  4  2  0  0  0  0 
  2  5  1  0  0  0  0 
  3  6  1  0  0  0  0 
  5  7  2  0  0  0  0 
  5  8  1  0  0  0  0 
  9  6  2  0  0  0  0 
  6 10  1  0  0  0  0 
  8 11  1  0  0  0  0 
 12  9  1  0  0  0  0 
  9 13  1  0  0  0  0 
 10 14  2  0  0  0  0 
 15 12  1  0  0  0  0 
 13 16  2  0  0  0  0 
 16 14  1  0  0  0  0 
 15 17  1  0  0  0  0 
 15 18  2  0  0  0  0 
 17 19  1  0  0  0  0 
 19 20  2  0  0  0  0 
 19 21  1  0  0  0  0 
 21 22  1  0  0  0  0 
M  END
> <Name>
THIOPHANATE-METHYL

> <Source>
DSSTox2DMolFile

> <Tox>
-7.147

> <CAS>
23564-05-8

$$$$

  CDK

 15 15  0  0  0  0  0  0  0  0999 V2000
   -0.1351    0.4751    0.0000 C   0  0  0  0  0  0  0  0  0  0  0  0
    0.4073    0.4745    0.0000 N   0  0  0  0  0  0  0  0  0  0  0  0
   -0.4068    0.9456    0.0000 C   0  0  0  0  0  0  0  0  0  0  0  0
   -0.4076    0.0161    0.0000 C   0  0  0  0  0  0  0  0  0  0  0  0
    0.6789    0.0161    0.0000 C   0  0  0  0  0  0  0  0  0  0  0  0
   -0.1380   -0.4751    0.0000 C   0  0  0  0  0  0  0  0  0  0  0  0
   -0.9509    0.0161    0.0000 C   0  0  0  0  0  0  0  0  0  0  0  0
    0.4073   -0.4762    0.0000 N   0  0  0  0  0  0  0  0  0  0  0  0
    1.2222    0.0161    0.0000 N   0  0  0  0  0  0  0  0  0  0  0  0
   -0.4097   -0.9456    0.0000 O   0  0  0  0  0  0  0  0  0  0  0  0
   -1.2211   -0.4519    0.0000 C   0  0  0  0  0  0  0  0  0  0  0  0
    1.4924   -0.4519    0.0000 C   0  0  0  0  0  0  0  0  0  0  0  0
   -1.7659   -0.4519    0.0000 C   0  0  0  0  0  0  0  0  0  0  0  0
    2.0372   -0.4519    0.0000 C   0  0  0  0  0  0  0  0  0  0  0  0
   -2.0372   -0.9218    0.0000 C   0  0  0  0  0  0  0  0  0  0  0  0
  2  1  1  0  0  0  0 
  1  3  1  0  0  0  0 
  1  4  2  0  0  0  0 
  5  2  2  0  0  0  0 
  4  6  1  0  0  0  0 
  4  7  1  0  0  0  0 
  8  5  1  0  0  0  0 
  5  9  1  0  0  0  0 
  6  8  1  0  0  0  0 
  6 10  2  0  0  0  0 
  7 11  1  0  0  0  0 
  9 12  1  0  0  0  0 
 11 13  1  0  0  0  0 
 12 14  1  0  0  0  0 
 13 15  1  0  0  0  0 
M  END
> <Name>
Ethyrimol

> <Source>
Other

> <Tox>
-5.699

> <CAS>
23947-60-6

$$$$

  CDK

  6  5  0  0  0  0  0  0  0  0999 V2000
   -0.7966    1.1912   -0.7589 O   0  0  0  0  0  0  0  0  0  0  0  0
   -0.6885    0.3485    0.3866 C   0  0  0  0  0  0  0  0  0  0  0  0
    0.6818   -0.3432    0.3844 C   0  0  0  0  0  0  0  0  0  0  0  0
   -1.8419   -0.6480    0.3689 C   0  0  0  0  0  0  0  0  0  0  0  0
    0.8041   -1.1950   -0.7530 O   0  0  0  0  0  0  0  0  0  0  0  0
    1.8410    0.6465    0.3719 C   0  0  0  0  0  0  0  0  0  0  0  0
  1  2  1  0  0  0  0 
  2  3  1  0  0  0  0 
  2  4  1  0  0  0  0 
  5  3  1  0  0  0  0 
  3  6  1  0  0  0  0 
M  END
> <Name>
2,3-BUTANEDIOL (L)

> <Source>
Chemidplus3DMolFile

> <Tox>
-0.260

> <CAS>
24347-58-8

$$$$

  CDK

 13 12  0  0  0  0  0  0  0  0999 V2000
    7.2760    3.4981    0.0000 O   0  0  0  0  0  0  0  0  0  0  0  0
    7.2760    2.0988    0.0000 C   0  0  0  0  0  0  0  0  0  0  0  0
    6.0633    1.3992    0.0000 N   0  0  0  0  0  0  0  0  0  0  0  0
    8.4886    1.3992    0.0000 O   0  0  0  0  0  0  0  0  0  0  0  0
    4.8506    2.0988    0.0000 C   0  0  0  0  0  0  0  0  0  0  0  0
    9.7013    2.0988    0.0000 C   0  0  0  0  0  0  0  0  0  0  0  0
    3.6380    1.3992    0.0000 C   0  0  0  0  0  0  0  0  0  0  0  0
   10.9139    1.3992    0.0000 C   0  0  0  0  0  0  0  0  0  0  0  0
    2.4253    2.0988    0.0000 C   0  0  0  0  0  0  0  0  0  0  0  0
   12.1266    2.0988    0.0000 C   0  0  0  0  0  0  0  0  0  0  0  0
    1.2127    1.3992    0.0000 N   0  0  0  0  0  0  0  0  0  0  0  0
    0.0000    2.0988    0.0000 C   0  0  0  0  0  0  0  0  0  0  0  0
    1.2127    0.0000    0.0000 C   0  0  0  0  0  0  0  0  0  0  0  0
  1  2  2  0  0  0  0 
  2  3  1  0  0  0  0 
  2  4  1  0  0  0  0 
  3  5  1  0  0  0  0 
  4  6  1  0  0  0  0 
  5  7  1  0  0  0  0 
  6  8  1  0  0  0  0 
  7  9  1  0  0  0  0 
  8 10  1  0  0  0  0 
  9 11  1  0  0  0  0 
 11 12  1  0  0  0  0 
 11 13  1  0  0  0  0 
M  END
> <Name>
Propamocarb

> <Source>
IndexNet2DMolFile

> <Tox>
-1.261

> <CAS>
24579-73-5

$$$$

  CDK

  7  6  0  0  0  0  0  0  0  0999 V2000
    1.7320    1.0000    0.0000 C   0  0  0  0  0  0  0  0  0  0  0  0
    0.8660    1.5000    0.0000 C   0  0  0  0  0  0  0  0  0  0  0  0
    1.7320    0.0000    0.0000 C   0  0  0  0  0  0  0  0  0  0  0  0
    2.5981    1.5000    0.0000 C   0  0  0  0  0  0  0  0  0  0  0  0
    0.8660    2.5000    0.0000 C   0  0  0  0  0  0  0  0  0  0  0  0
    0.0000    1.0000    0.0000 C   0  0  0  0  0  0  0  0  0  0  0  0
    3.4641    1.0000    0.0000 C   0  0  0  0  0  0  0  0  0  0  0  0
  1  2  1  0  0  0  0 
  1  3  1  0  0  0  0 
  1  4  2  0  0  0  0 
  2  5  1  0  0  0  0 
  2  6  1  0  0  0  0 
  4  7  1  0  0  0  0 
M  END
> <Name>
3,4-DIMETHYL-2-PENTENE

> <Source>
NIST2DMolFile

> <Tox>
1.830

> <CAS>
24910-63-2

$$$$

  CDK

 15 16  0  0  0  0  0  0  0  0999 V2000
    2.5967    2.9962    0.0000 O   0  0  0  0  0  0  0  0  0  0  0  0
    1.7478    2.4968    0.0000 C   0  0  0  0  0  0  0  0  0  0  0  0
    3.4955    2.4469    0.0000 C   0  0  0  0  0  0  0  0  0  0  0  0
    0.8988    2.9962    0.0000 C   0  0  0  0  0  0  0  0  0  0  0  0
    1.7478    1.4481    0.0000 C   0  0  0  0  0  0  0  0  0  0  0  0
    3.4955    1.4481    0.0000 C   0  0  0  0  0  0  0  0  0  0  0  0
    4.3444    2.9462    0.0000 C   0  0  0  0  0  0  0  0  0  0  0  0
    0.8988    3.9949    0.0000 Cl  0  0  0  0  0  0  0  0  0  0  0  0
    0.0000    2.4968    0.0000 C   0  0  0  0  0  0  0  0  0  0  0  0
    0.8489    0.9987    0.0000 C   0  0  0  0  0  0  0  0  0  0  0  0
    4.2945    0.9488    0.0000 C   0  0  0  0  0  0  0  0  0  0  0  0
    5.1933    2.4469    0.0000 C   0  0  0  0  0  0  0  0  0  0  0  0
    0.0000    1.5480    0.0000 C   0  0  0  0  0  0  0  0  0  0  0  0
    0.8489    0.0000    0.0000 Cl  0  0  0  0  0  0  0  0  0  0  0  0
    5.1933    1.4481    0.0000 C   0  0  0  0  0  0  0  0  0  0  0  0
  1  2  1  0  0  0  0 
  1  3  1  0  0  0  0 
  4  2  2  0  0  0  0 
  2  5  1  0  0  0  0 
  6  3  2  0  0  0  0 
  3  7  1  0  0  0  0 
  4  8  1  0  0  0  0 
  9  4  1  0  0  0  0 
  5 10  2  0  0  0  0 
 11  6  1  0  0  0  0 
  7 12  2  0  0  0  0 
 13  9  2  0  0  0  0 
 10 13  1  0  0  0  0 
 10 14  1  0  0  0  0 
 15 11  2  0  0  0  0 
 12 15  1  0  0  0  0 
M  END
> <Name>
2,5-Dichlorodiphenyl ether

> <Source>
NIST2DMolFile

> <Tox>
-3.000

> <CAS>
24910-69-8

$$$$

  CDK

 16 17  0  0  0  0  0  0  0  0999 V2000
    1.4241   -0.8429    0.0000 C   0  0  0  0  0  0  0  0  0  0  0  0
    2.1386   -0.4304    0.0000 C   0  0  0  0  0  0  0  0  0  0  0  0
    0.7097   -0.4304    0.0000 C   0  0  0  0  0  0  0  0  0  0  0  0
    2.1386    0.3946    0.0000 C   0  0  0  0  0  0  0  0  0  0  0  0
    0.7097    0.3946    0.0000 C   0  0  0  0  0  0  0  0  0  0  0  0
   -0.0048   -0.8429    0.0000 O   0  0  0  0  0  0  0  0  0  0  0  0
    2.8531    0.8071    0.0000 Cl  0  0  0  0  0  0  0  0  0  0  0  0
    1.4241    0.8071    0.0000 C   0  0  0  0  0  0  0  0  0  0  0  0
   -0.7193   -0.4304    0.0000 C   0  0  0  0  0  0  0  0  0  0  0  0
   -0.7193    0.3946    0.0000 C   0  0  0  0  0  0  0  0  0  0  0  0
   -1.4337   -0.8429    0.0000 C   0  0  0  0  0  0  0  0  0  0  0  0
   -1.4337    0.8071    0.0000 C   0  0  0  0  0  0  0  0  0  0  0  0
   -2.1482   -0.4304    0.0000 C   0  0  0  0  0  0  0  0  0  0  0  0
   -1.4337    1.6321    0.0000 Cl  0  0  0  0  0  0  0  0  0  0  0  0
   -2.1482    0.3946    0.0000 C   0  0  0  0  0  0  0  0  0  0  0  0
   -2.8627   -0.8429    0.0000 Cl  0  0  0  0  0  0  0  0  0  0  0  0
  1  2  1  0  0  0  0 
  1  3  2  0  0  0  0 
  2  4  2  0  0  0  0 
  5  3  1  0  0  0  0 
  3  6  1  0  0  0  0 
  4  7  1  0  0  0  0 
  4  8  1  0  0  0  0 
  8  5  2  0  0  0  0 
  6  9  1  0  0  0  0 
  9 10  1  0  0  0  0 
  9 11  2  0  0  0  0 
 10 12  2  0  0  0  0 
 13 11  1  0  0  0  0 
 12 14  1  0  0  0  0 
 12 15  1  0  0  0  0 
 15 13  2  0  0  0  0 
 13 16  1  0  0  0  0 
M  END
> <Name>
3,4',5-Trichlorodiphenyl ether

> <Source>
Smiles

> <Tox>
-3.764

> <CAS>
24910-73-4

$$$$

  CDK

 22 22  0  0  0  0  0  0  0  0999 V2000
    3.4400   -2.6549    0.0000 P   0  0  0  0  0  0  0  0  0  0  0  0
    4.5764   -1.9834    0.0000 O   0  0  0  0  0  0  0  0  0  0  0  0
    4.0805   -3.8016    0.0000 N   0  0  0  0  0  0  0  0  0  0  0  0
    2.7789   -1.4669    0.0000 S   0  0  0  0  0  0  0  0  0  0  0  0
    2.2623   -3.3057    0.0000 O   0  0  0  0  0  0  0  0  0  0  0  0
    5.7437   -2.6549    0.0000 C   0  0  0  0  0  0  0  0  0  0  0  0
    3.3367   -4.8863    0.0000 C   0  0  0  0  0  0  0  0  0  0  0  0
    1.1673   -2.6239    0.0000 C   0  0  0  0  0  0  0  0  0  0  0  0
    6.8904   -1.9938    0.0000 C   0  0  0  0  0  0  0  0  0  0  0  0
    5.7437   -3.9772    0.0000 C   0  0  0  0  0  0  0  0  0  0  0  0
    3.9669   -6.0949    0.0000 C   0  0  0  0  0  0  0  0  0  0  0  0
    2.0041   -4.8863    0.0000 C   0  0  0  0  0  0  0  0  0  0  0  0
    0.0000   -3.2747    0.0000 C   0  0  0  0  0  0  0  0  0  0  0  0
    6.8904   -0.6715    0.0000 C   0  0  0  0  0  0  0  0  0  0  0  0
    8.0474   -2.6549    0.0000 C   0  0  0  0  0  0  0  0  0  0  0  0
    6.8904   -4.6590    0.0000 C   0  0  0  0  0  0  0  0  0  0  0  0
    8.0474   -0.0000    0.0000 O   0  0  0  0  0  0  0  0  0  0  0  0
    5.7437   -0.0000    0.0000 O   0  0  0  0  0  0  0  0  0  0  0  0
    8.0474   -3.9772    0.0000 C   0  0  0  0  0  0  0  0  0  0  0  0
    9.1837   -0.6715    0.0000 C   0  0  0  0  0  0  0  0  0  0  0  0
    9.1837   -1.9938    0.0000 C   0  0  0  0  0  0  0  0  0  0  0  0
   10.3304   -0.0000    0.0000 C   0  0  0  0  0  0  0  0  0  0  0  0
  1  2  1  0  0  0  0 
  1  3  1  0  0  0  0 
  1  4  2  0  0  0  0 
  1  5  1  0  0  0  0 
  6  2  1  0  0  0  0 
  3  7  1  0  0  0  0 
  5  8  1  0  0  0  0 
  9  6  1  0  0  0  0 
  6 10  2  0  0  0  0 
  7 11  1  0  0  0  0 
  7 12  1  0  0  0  0 
  8 13  1  0  0  0  0 
 14  9  1  0  0  0  0 
  9 15  2  0  0  0  0 
 10 16  1  0  0  0  0 
 14 17  1  0  0  0  0 
 14 18  2  0  0  0  0 
 15 19  1  0  0  0  0 
 19 16  2  0  0  0  0 
 17 20  1  0  0  0  0 
 20 21  1  0  0  0  0 
 20 22  1  0  0  0  0 
M  END
> <Name>
ISOFENPHOS

> <Source>
DSSTox2DMolFile

> <Tox>
-5.523

> <CAS>
25311-71-1

$$$$

  CDK

  8  8  0  0  0  0  0  0  0  0999 V2000
    0.0000    2.0988    0.0000 C   0  0  0  0  0  0  0  0  0  0  0  0
    0.0000    0.6996    0.0000 C   0  0  0  0  0  0  0  0  0  0  0  0
    1.2127    2.7984    0.0000 C   0  0  0  0  0  0  0  0  0  0  0  0
    1.2127    0.0000    0.0000 C   0  0  0  0  0  0  0  0  0  0  0  0
    2.4253    2.0988    0.0000 C   0  0  0  0  0  0  0  0  0  0  0  0
    1.2127    4.1977    0.0000 Cl  0  0  0  0  0  0  0  0  0  0  0  0
    2.4253    0.6996    0.0000 C   0  0  0  0  0  0  0  0  0  0  0  0
    3.6380    2.7984    0.0000 Cl  0  0  0  0  0  0  0  0  0  0  0  0
  1  2  2  0  0  0  0 
  1  3  1  0  0  0  0 
  2  4  1  0  0  0  0 
  5  3  2  0  0  0  0 
  3  6  1  0  0  0  0 
  4  7  2  0  0  0  0 
  7  5  1  0  0  0  0 
  5  8  1  0  0  0  0 
M  END
> <Name>
DICHLOROBENZENE

> <Source>
IndexNet2DMolFile

> <Tox>
0.167

> <CAS>
25321-22-6

$$$$

  CDK

  4  3  0  0  0  0  0  0  0  0999 V2000
    1.2127    2.0988    0.0000 Cl  0  0  0  0  0  0  0  0  0  0  0  0
    1.2127    0.6996    0.0000 C   0  0  0  0  0  0  0  0  0  0  0  0
    0.0000    0.0000    0.0000 Cl  0  0  0  0  0  0  0  0  0  0  0  0
    2.4253    0.0000    0.0000 C   0  0  0  0  0  0  0  0  0  0  0  0
  1  2  1  0  0  0  0 
  2  3  1  0  0  0  0 
  2  4  2  0  0  0  0 
M  END
> <Name>
DICHLOROETHYLENE

> <Source>
IndexNet2DMolFile

> <Tox>
2.802

> <CAS>
25323-30-2

$$$$

  CDK

 11 10  0  0  0  0  0  0  0  0999 V2000
    0.0000   -1.9972    0.0000 C   0  0  0  0  0  0  0  0  0  0  0  0
    1.1547   -1.3419    0.0000 C   0  0  0  0  0  0  0  0  0  0  0  0
    2.3197   -1.9972    0.0000 C   0  0  0  0  0  0  0  0  0  0  0  0
    1.1547   -0.0000    0.0000 C   0  0  0  0  0  0  0  0  0  0  0  0
    3.4744   -1.3419    0.0000 C   0  0  0  0  0  0  0  0  0  0  0  0
    4.6290   -1.9972    0.0000 C   0  0  0  0  0  0  0  0  0  0  0  0
    5.7837   -1.3419    0.0000 C   0  0  0  0  0  0  0  0  0  0  0  0
    6.9487   -1.9972    0.0000 C   0  0  0  0  0  0  0  0  0  0  0  0
    8.1034   -1.3419    0.0000 C   0  0  0  0  0  0  0  0  0  0  0  0
    9.2476   -1.9972    0.0000 C   0  0  0  0  0  0  0  0  0  0  0  0
   10.4023   -1.3419    0.0000 O   0  0  0  0  0  0  0  0  0  0  0  0
  1  2  1  0  0  0  0 
  2  3  1  0  0  0  0 
  2  4  1  0  0  0  0 
  3  5  1  0  0  0  0 
  5  6  1  0  0  0  0 
  6  7  1  0  0  0  0 
  7  8  1  0  0  0  0 
  8  9  1  0  0  0  0 
  9 10  1  0  0  0  0 
 10 11  1  0  0  0  0 
M  END
> <Name>
ISODECANOL

> <Source>
DSSTox2DMolFile

> <Tox>
-1.684

> <CAS>
25339-17-7

$$$$

  CDK

 10  9  0  0  0  0  0  0  0  0999 V2000
    1.1517   -1.1517    0.0000 C   0  0  0  0  0  0  0  0  0  0  0  0
    2.3034   -1.8202    0.0000 C   0  0  0  0  0  0  0  0  0  0  0  0
    0.4993   -2.3034    0.0000 S   0  0  0  0  0  0  0  0  0  0  0  0
    1.8202   -0.0000    0.0000 C   0  0  0  0  0  0  0  0  0  0  0  0
    0.0000   -0.4832    0.0000 C   0  0  0  0  0  0  0  0  0  0  0  0
    3.4552   -1.1517    0.0000 C   0  0  0  0  0  0  0  0  0  0  0  0
    4.5988   -1.8202    0.0000 C   0  0  0  0  0  0  0  0  0  0  0  0
    5.7506   -1.1517    0.0000 C   0  0  0  0  0  0  0  0  0  0  0  0
    6.9023   -1.8202    0.0000 C   0  0  0  0  0  0  0  0  0  0  0  0
    8.0540   -1.1517    0.0000 C   0  0  0  0  0  0  0  0  0  0  0  0
  1  2  1  0  0  0  0 
  1  3  1  0  0  0  0 
  1  4  1  0  0  0  0 
  1  5  1  0  0  0  0 
  2  6  1  0  0  0  0 
  6  7  1  0  0  0  0 
  7  8  1  0  0  0  0 
  8  9  1  0  0  0  0 
  9 10  1  0  0  0  0 
M  END
> <Name>
tert-Nonanethiol

> <Source>
DSSTox2DMolFile

> <Tox>
-0.274

> <CAS>
25360-10-5

$$$$

  CDK

  9  9  0  0  0  0  0  0  0  0999 V2000
    3.3265   -1.1518    0.0000 C   0  0  0  0  0  0  0  0  0  0  0  0
    3.9853   -2.3036    0.0000 C   0  0  0  0  0  0  0  0  0  0  0  0
    1.9996   -1.1518    0.0000 C   0  0  0  0  0  0  0  0  0  0  0  0
    3.3265   -3.4555    0.0000 C   0  0  0  0  0  0  0  0  0  0  0  0
    1.3269   -2.3036    0.0000 C   0  0  0  0  0  0  0  0  0  0  0  0
    1.3269   -0.0000    0.0000 C   0  0  0  0  0  0  0  0  0  0  0  0
    1.9996   -3.4555    0.0000 C   0  0  0  0  0  0  0  0  0  0  0  0
    0.0000   -0.0000    0.0000 C   0  0  0  0  0  0  0  0  0  0  0  0
    1.3269   -4.6073    0.0000 C   0  0  0  0  0  0  0  0  0  0  0  0
  1  2  2  0  0  0  0 
  1  3  1  0  0  0  0 
  2  4  1  0  0  0  0 
  5  3  2  0  0  0  0 
  3  6  1  0  0  0  0 
  4  7  2  0  0  0  0 
  7  5  1  0  0  0  0 
  6  8  1  0  0  0  0 
  7  9  1  0  0  0  0 
M  END
> <Name>
METHYL ETHYL BENZENE

> <Source>
DSSTox2DMolFile

> <Tox>
0.459

> <CAS>
25550-14-5

$$$$

  CDK

 15 16  0  0  0  0  0  0  0  0999 V2000
    4.6566   -1.1577    0.0000 C   0  0  0  0  0  0  0  0  0  0  0  0
    5.9870   -1.1577    0.0000 C   0  0  0  0  0  0  0  0  0  0  0  0
    3.9827   -0.0000    0.0000 C   0  0  0  0  0  0  0  0  0  0  0  0
    3.9827   -2.3067    0.0000 C   0  0  0  0  0  0  0  0  0  0  0  0
    6.6436   -2.3067    0.0000 C   0  0  0  0  0  0  0  0  0  0  0  0
    6.6436   -0.0000    0.0000 C   0  0  0  0  0  0  0  0  0  0  0  0
    2.6523   -0.0000    0.0000 C   0  0  0  0  0  0  0  0  0  0  0  0
    2.6523   -2.3067    0.0000 C   0  0  0  0  0  0  0  0  0  0  0  0
    7.9654   -2.3067    0.0000 C   0  0  0  0  0  0  0  0  0  0  0  0
    7.9654   -0.0000    0.0000 C   0  0  0  0  0  0  0  0  0  0  0  0
    1.9870   -1.1577    0.0000 C   0  0  0  0  0  0  0  0  0  0  0  0
    8.6393   -1.1577    0.0000 C   0  0  0  0  0  0  0  0  0  0  0  0
    0.6566   -1.1577    0.0000 C   0  0  0  0  0  0  0  0  0  0  0  0
    0.0000   -0.0000    0.0000 C   0  0  0  0  0  0  0  0  0  0  0  0
    0.0000   -2.3067    0.0000 C   0  0  0  0  0  0  0  0  0  0  0  0
  1  2  1  0  0  0  0 
  1  3  2  0  0  0  0 
  1  4  1  0  0  0  0 
  2  5  2  0  0  0  0 
  2  6  1  0  0  0  0 
  3  7  1  0  0  0  0 
  4  8  2  0  0  0  0 
  5  9  1  0  0  0  0 
  6 10  2  0  0  0  0 
  7 11  2  0  0  0  0 
  8 11  1  0  0  0  0 
  9 12  2  0  0  0  0 
 10 12  1  0  0  0  0 
 11 13  1  0  0  0  0 
 13 14  1  0  0  0  0 
 13 15  1  0  0  0  0 
M  END
> <Name>
ISOPROPYLBIPHENYL

> <Source>
DSSTox2DMolFile

> <Tox>
-3.301

> <CAS>
25640-78-2

$$$$

  CDK

 18 18  0  0  0  0  0  0  0  0999 V2000
    2.5113    2.5113    0.0000 P   0  0  0  0  0  0  0  0  0  0  0  0
    3.5159    2.5113    0.0000 S   0  0  0  0  0  0  0  0  0  0  0  0
    1.5068    2.5113    0.0000 O   0  0  0  0  0  0  0  0  0  0  0  0
    2.5113    1.5068    0.0000 O   0  0  0  0  0  0  0  0  0  0  0  0
    2.5113    3.5159    0.0000 O   0  0  0  0  0  0  0  0  0  0  0  0
    4.0181    3.3652    0.0000 C   0  0  0  0  0  0  0  0  0  0  0  0
    1.0045    3.3652    0.0000 C   0  0  0  0  0  0  0  0  0  0  0  0
    1.6575    1.0045    0.0000 C   0  0  0  0  0  0  0  0  0  0  0  0
    5.0227    3.3652    0.0000 C   0  0  0  0  0  0  0  0  0  0  0  0
    1.5068    4.2190    0.0000 C   0  0  0  0  0  0  0  0  0  0  0  0
    0.0000    3.3652    0.0000 C   0  0  0  0  0  0  0  0  0  0  0  0
    0.7534    1.5068    0.0000 C   0  0  0  0  0  0  0  0  0  0  0  0
    1.6575    0.0000    0.0000 C   0  0  0  0  0  0  0  0  0  0  0  0
    5.5249    4.2190    0.0000 C   0  0  0  0  0  0  0  0  0  0  0  0
    5.5249    2.5113    0.0000 C   0  0  0  0  0  0  0  0  0  0  0  0
    6.5295    4.2190    0.0000 C   0  0  0  0  0  0  0  0  0  0  0  0
    6.5295    2.5113    0.0000 C   0  0  0  0  0  0  0  0  0  0  0  0
    7.0317    3.3652    0.0000 C   0  0  0  0  0  0  0  0  0  0  0  0
  1  2  1  0  0  0  0 
  1  3  1  0  0  0  0 
  1  4  1  0  0  0  0 
  1  5  2  0  0  0  0 
  2  6  1  0  0  0  0 
  3  7  1  0  0  0  0 
  4  8  1  0  0  0  0 
  6  9  1  0  0  0  0 
  7 10  1  0  0  0  0 
  7 11  1  0  0  0  0 
  8 12  1  0  0  0  0 
  8 13  1  0  0  0  0 
 14  9  2  0  0  0  0 
  9 15  1  0  0  0  0 
 16 14  1  0  0  0  0 
 15 17  2  0  0  0  0 
 18 16  2  0  0  0  0 
 17 18  1  0  0  0  0 
M  END
> <Name>
IBP (IPROBENFOS)

> <Source>
NIST2DMolFile

> <Tox>
-4.393

> <CAS>
26087-47-8

$$$$

  CDK

 13 12  0  0  0  0  0  0  0  0999 V2000
    1.4000    1.4000    0.0000 C   0  0  0  0  0  0  0  0  0  0  0  0
    1.1667    0.0000    0.0000 F   0  0  0  0  0  0  0  0  0  0  0  0
    0.3267    2.2867    0.0000 F   0  0  0  0  0  0  0  0  0  0  0  0
    2.7067    0.9333    0.0000 F   0  0  0  0  0  0  0  0  0  0  0  0
    2.1000    2.6133    0.0000 C   0  0  0  0  0  0  0  0  0  0  0  0
    3.5000    2.6133    0.0000 O   0  0  0  0  0  0  0  0  0  0  0  0
    1.4000    3.8267    0.0000 C   0  0  0  0  0  0  0  0  0  0  0  0
    4.2000    3.8267    0.0000 C   0  0  0  0  0  0  0  0  0  0  0  0
    0.0000    3.8267    0.0000 F   0  0  0  0  0  0  0  0  0  0  0  0
    1.1667    5.1800    0.0000 F   0  0  0  0  0  0  0  0  0  0  0  0
    2.7067    4.2933    0.0000 F   0  0  0  0  0  0  0  0  0  0  0  0
    3.5000    5.0400    0.0000 F   0  0  0  0  0  0  0  0  0  0  0  0
    5.6000    3.8267    0.0000 F   0  0  0  0  0  0  0  0  0  0  0  0
  1  2  1  0  0  0  0 
  1  3  1  0  0  0  0 
  1  4  1  0  0  0  0 
  1  5  1  0  0  0  0 
  5  6  1  0  0  0  0 
  5  7  1  0  0  0  0 
  6  8  1  0  0  0  0 
  7  9  1  0  0  0  0 
  7 10  1  0  0  0  0 
  7 11  1  0  0  0  0 
  8 12  1  0  0  0  0 
  8 13  1  0  0  0  0 
M  END
> <Name>
CHF2-O-CH(CF3)CF3

> <Source>
IndexNet2DMolFile

> <Tox>
2.588

> <CAS>
26103-08-2

$$$$

  CDK

 19 20  0  0  0  0  0  0  0  0999 V2000
    1.1476   -1.9721    0.0000 S   0  0  0  0  0  0  0  0  0  0  0  0
    2.2840   -2.6628    0.0000 O   0  0  0  0  0  0  0  0  0  0  0  0
    1.8272   -0.8356    0.0000 O   0  0  0  0  0  0  0  0  0  0  0  0
    0.4679   -3.1196    0.0000 O   0  0  0  0  0  0  0  0  0  0  0  0
    0.0000   -1.3036    0.0000 C   0  0  0  0  0  0  0  0  0  0  0  0
    3.4539   -1.9832    0.0000 C   0  0  0  0  0  0  0  0  0  0  0  0
    4.6238   -2.6628    0.0000 C   0  0  0  0  0  0  0  0  0  0  0  0
    3.4539   -0.6796    0.0000 C   0  0  0  0  0  0  0  0  0  0  0  0
    5.7825   -1.9832    0.0000 C   0  0  0  0  0  0  0  0  0  0  0  0
    4.6238   -0.0000    0.0000 C   0  0  0  0  0  0  0  0  0  0  0  0
    7.0415   -2.4066    0.0000 C   0  0  0  0  0  0  0  0  0  0  0  0
    5.7825   -0.6796    0.0000 C   0  0  0  0  0  0  0  0  0  0  0  0
    7.7991   -1.3370    0.0000 C   0  0  0  0  0  0  0  0  0  0  0  0
    7.8437   -3.4650    0.0000 C   0  0  0  0  0  0  0  0  0  0  0  0
    6.5290   -3.6210    0.0000 C   0  0  0  0  0  0  0  0  0  0  0  0
    7.0415   -0.2563    0.0000 O   0  0  0  0  0  0  0  0  0  0  0  0
    9.1361   -1.3370    0.0000 O   0  0  0  0  0  0  0  0  0  0  0  0
    9.7935   -2.4734    0.0000 C   0  0  0  0  0  0  0  0  0  0  0  0
   11.1416   -2.4734    0.0000 C   0  0  0  0  0  0  0  0  0  0  0  0
  1  2  1  0  0  0  0 
  1  3  2  0  0  0  0 
  1  4  2  0  0  0  0 
  1  5  1  0  0  0  0 
  2  6  1  0  0  0  0 
  7  6  2  0  0  0  0 
  6  8  1  0  0  0  0 
  9  7  1  0  0  0  0 
 10  8  2  0  0  0  0 
 11  9  1  0  0  0  0 
  9 12  2  0  0  0  0 
 12 10  1  0  0  0  0 
 11 13  1  0  0  0  0 
 11 14  1  0  0  0  0 
 11 15  1  0  0  0  0 
 16 12  1  0  0  0  0 
 16 13  1  0  0  0  0 
 13 17  1  0  0  0  0 
 17 18  1  0  0  0  0 
 18 19  1  0  0  0  0 
M  END
> <Name>
ETHOFUMESATE

> <Source>
DSSTox2DMolFile

> <Tox>
-5.310

> <CAS>
26225-79-6

$$$$

  CDK

 14 14  0  0  0  0  0  0  0  0999 V2000
   10.6991   -0.0000    0.0000 O   0  0  0  0  0  0  0  0  0  0  0  0
   10.4164   -1.3006    0.0000 C   0  0  0  0  0  0  0  0  0  0  0  0
   11.3099   -2.2846    0.0000 C   0  0  0  0  0  0  0  0  0  0  0  0
    9.2062   -1.8435    0.0000 N   0  0  0  0  0  0  0  0  0  0  0  0
   10.6426   -3.4382    0.0000 C   0  0  0  0  0  0  0  0  0  0  0  0
    9.3420   -3.1668    0.0000 S   0  0  0  0  0  0  0  0  0  0  0  0
    8.0526   -1.1762    0.0000 C   0  0  0  0  0  0  0  0  0  0  0  0
    6.9103   -1.8435    0.0000 C   0  0  0  0  0  0  0  0  0  0  0  0
    5.7567   -1.1762    0.0000 C   0  0  0  0  0  0  0  0  0  0  0  0
    4.6031   -1.8435    0.0000 C   0  0  0  0  0  0  0  0  0  0  0  0
    3.4495   -1.1762    0.0000 C   0  0  0  0  0  0  0  0  0  0  0  0
    2.3072   -1.8435    0.0000 C   0  0  0  0  0  0  0  0  0  0  0  0
    1.1536   -1.1762    0.0000 C   0  0  0  0  0  0  0  0  0  0  0  0
    0.0000   -1.8435    0.0000 C   0  0  0  0  0  0  0  0  0  0  0  0
  1  2  2  0  0  0  0 
  2  3  1  0  0  0  0 
  2  4  1  0  0  0  0 
  3  5  2  0  0  0  0 
  6  4  1  0  0  0  0 
  4  7  1  0  0  0  0 
  5  6  1  0  0  0  0 
  7  8  1  0  0  0  0 
  8  9  1  0  0  0  0 
  9 10  1  0  0  0  0 
 10 11  1  0  0  0  0 
 11 12  1  0  0  0  0 
 12 13  1  0  0  0  0 
 13 14  1  0  0  0  0 
M  END
> <Name>
3(2H)-ISOTHIAZOLONE, 2-OCTYL-

> <Source>
DSSTox2DMolFile

> <Tox>
-4.434

> <CAS>
26530-20-1

$$$$

  CDK

  6  5  0  0  0  0  0  0  0  0999 V2000
   -2.2337   -0.6145   -0.6971 Cl  0  0  0  0  0  0  0  0  0  0  0  0
   -1.4104   -0.0181    0.7678 C   0  0  0  0  0  0  0  0  0  0  0  0
    0.0518    0.3546    0.5193 C   0  0  0  0  0  0  0  0  0  0  0  0
    0.0913    1.4081   -0.4416 O   0  0  0  0  0  0  0  0  0  0  0  0
    0.9034   -0.8208    0.0444 C   0  0  0  0  0  0  0  0  0  0  0  0
    2.5976   -0.3094   -0.1928 Cl  0  0  0  0  0  0  0  0  0  0  0  0
  1  2  1  0  0  0  0 
  3  2  1  0  0  0  0 
  4  3  1  0  0  0  0 
  3  5  1  0  0  0  0 
  6  5  1  0  0  0  0 
M  END
> <Name>
GLYCEROL DICHLOROHYDRIN

> <Source>
Chemidplus3DMolFile

> <Tox>
-0.096

> <CAS>
26545-73-3

$$$$

  CDK

 22 22  0  0  0  0  0  0  0  0999 V2000
    2.2763   -1.1471    0.0000 C   0  0  0  0  0  0  0  0  0  0  0  0
    3.4324   -1.8192    0.0000 C   0  0  0  0  0  0  0  0  0  0  0  0
    1.1292   -0.4929    0.0000 Cl  0  0  0  0  0  0  0  0  0  0  0  0
    2.9664   -0.0000    0.0000 Cl  0  0  0  0  0  0  0  0  0  0  0  0
    1.6131   -2.3121    0.0000 Cl  0  0  0  0  0  0  0  0  0  0  0  0
    3.4324   -3.1546    0.0000 N   0  0  0  0  0  0  0  0  0  0  0  0
    4.5705   -1.1471    0.0000 N   0  0  0  0  0  0  0  0  0  0  0  0
    4.5705   -3.8177    0.0000 C   0  0  0  0  0  0  0  0  0  0  0  0
    2.2763   -3.8177    0.0000 C   0  0  0  0  0  0  0  0  0  0  0  0
    5.6997   -1.8461    0.0000 C   0  0  0  0  0  0  0  0  0  0  0  0
    4.5705   -5.1351    0.0000 C   0  0  0  0  0  0  0  0  0  0  0  0
    2.2763   -5.1351    0.0000 C   0  0  0  0  0  0  0  0  0  0  0  0
    6.8648   -1.1830    0.0000 O   0  0  0  0  0  0  0  0  0  0  0  0
    3.4324   -5.7983    0.0000 N   0  0  0  0  0  0  0  0  0  0  0  0
    3.4324   -7.1246    0.0000 C   0  0  0  0  0  0  0  0  0  0  0  0
    4.5705   -7.8057    0.0000 C   0  0  0  0  0  0  0  0  0  0  0  0
    2.2763   -7.8057    0.0000 N   0  0  0  0  0  0  0  0  0  0  0  0
    3.8984   -8.9618    0.0000 Cl  0  0  0  0  0  0  0  0  0  0  0  0
    5.2427   -6.6317    0.0000 Cl  0  0  0  0  0  0  0  0  0  0  0  0
    5.7176   -8.4689    0.0000 Cl  0  0  0  0  0  0  0  0  0  0  0  0
    1.1471   -7.1246    0.0000 C   0  0  0  0  0  0  0  0  0  0  0  0
    0.0000   -7.8057    0.0000 O   0  0  0  0  0  0  0  0  0  0  0  0
  1  2  1  0  0  0  0 
  1  3  1  0  0  0  0 
  1  4  1  0  0  0  0 
  1  5  1  0  0  0  0 
  2  6  1  0  0  0  0 
  2  7  1  0  0  0  0 
  6  8  1  0  0  0  0 
  6  9  1  0  0  0  0 
  7 10  1  0  0  0  0 
  8 11  1  0  0  0  0 
 12  9  1  0  0  0  0 
 10 13  2  0  0  0  0 
 14 11  1  0  0  0  0 
 14 12  1  0  0  0  0 
 15 14  1  0  0  0  0 
 16 15  1  0  0  0  0 
 15 17  1  0  0  0  0 
 16 18  1  0  0  0  0 
 16 19  1  0  0  0  0 
 16 20  1  0  0  0  0 
 17 21  1  0  0  0  0 
 21 22  2  0  0  0  0 
M  END
> <Name>
TRIFORINE

> <Source>
DSSTox2DMolFile

> <Tox>
-6.699

> <CAS>
26644-46-2

$$$$

  CDK

 32 32  0  0  0  0  0  0  0  0999 V2000
    2.3592   -0.0029    1.3706 C   0  0  0  0  0  0  0  0  0  0  0  0
    3.6130    0.4906    0.7205 C   0  0  0  0  0  0  0  0  0  0  0  0
    2.0011   -1.1552    1.4910 O   0  0  0  0  0  0  0  0  0  0  0  0
    1.6506    1.0183    1.9399 O   0  0  0  0  0  0  0  0  0  0  0  0
    3.7399    0.7564   -0.6465 C   0  0  0  0  0  0  0  0  0  0  0  0
    4.7085    0.6669    1.5710 C   0  0  0  0  0  0  0  0  0  0  0  0
    0.4580    0.7377    2.6620 C   0  0  0  0  0  0  0  0  0  0  0  0
    2.6585    0.5990   -1.6662 C   0  0  0  0  0  0  0  0  0  0  0  0
    4.9746    1.2033   -1.1366 C   0  0  0  0  0  0  0  0  0  0  0  0
    5.9278    1.1041    1.0705 C   0  0  0  0  0  0  0  0  0  0  0  0
   -0.7759    1.0071    1.8093 C   0  0  0  0  0  0  0  0  0  0  0  0
    2.5579    1.2444   -2.6931 O   0  0  0  0  0  0  0  0  0  0  0  0
    1.7518   -0.3880   -1.4078 O   0  0  0  0  0  0  0  0  0  0  0  0
    6.0594    1.3741   -0.2870 C   0  0  0  0  0  0  0  0  0  0  0  0
   -2.0302    0.4973    2.5051 C   0  0  0  0  0  0  0  0  0  0  0  0
    0.9388   -0.8914   -2.4608 C   0  0  0  0  0  0  0  0  0  0  0  0
   -2.0584   -1.0255    2.5606 C   0  0  0  0  0  0  0  0  0  0  0  0
   -0.2727   -0.0415   -2.8289 C   0  0  0  0  0  0  0  0  0  0  0  0
   -2.2312   -1.6081    1.1699 C   0  0  0  0  0  0  0  0  0  0  0  0
   -1.3572   -0.0482   -1.7656 C   0  0  0  0  0  0  0  0  0  0  0  0
   -1.9663   -3.0990    1.1028 C   0  0  0  0  0  0  0  0  0  0  0  0
   -2.6817    0.4409   -2.3303 C   0  0  0  0  0  0  0  0  0  0  0  0
   -2.0769   -3.5875   -0.3375 C   0  0  0  0  0  0  0  0  0  0  0  0
   -3.8299    0.3542   -1.3339 C   0  0  0  0  0  0  0  0  0  0  0  0
   -1.3280   -4.8954   -0.5973 C   0  0  0  0  0  0  0  0  0  0  0  0
   -3.9034    1.5281   -0.3705 C   0  0  0  0  0  0  0  0  0  0  0  0
    0.1579   -4.7243   -0.3254 C   0  0  0  0  0  0  0  0  0  0  0  0
   -1.8981   -6.0399    0.2232 C   0  0  0  0  0  0  0  0  0  0  0  0
   -4.0682    2.8663   -1.0740 C   0  0  0  0  0  0  0  0  0  0  0  0
   -3.7321    4.0639   -0.1836 C   0  0  0  0  0  0  0  0  0  0  0  0
   -2.2678    4.0395    0.2235 C   0  0  0  0  0  0  0  0  0  0  0  0
   -4.6273    4.1236    1.0430 C   0  0  0  0  0  0  0  0  0  0  0  0
  1  2  1  0  0  0  0 
  1  3  2  0  0  0  0 
  1  4  1  0  0  0  0 
  2  5  1  0  0  0  0 
  2  6  2  0  0  0  0 
  4  7  1  0  0  0  0 
  5  8  1  0  0  0  0 
  5  9  2  0  0  0  0 
 10  6  1  0  0  0  0 
  7 11  1  0  0  0  0 
  8 12  2  0  0  0  0 
  8 13  1  0  0  0  0 
  9 14  1  0  0  0  0 
 14 10  2  0  0  0  0 
 11 15  1  0  0  0  0 
 13 16  1  0  0  0  0 
 15 17  1  0  0  0  0 
 16 18  1  0  0  0  0 
 17 19  1  0  0  0  0 
 18 20  1  0  0  0  0 
 19 21  1  0  0  0  0 
 20 22  1  0  0  0  0 
 21 23  1  0  0  0  0 
 22 24  1  0  0  0  0 
 23 25  1  0  0  0  0 
 24 26  1  0  0  0  0 
 25 27  1  0  0  0  0 
 25 28  1  0  0  0  0 
 26 29  1  0  0  0  0 
 29 30  1  0  0  0  0 
 30 31  1  0  0  0  0 
 30 32  1  0  0  0  0 
M  END
> <Name>
DIISODECYL PHTHALATE

> <Source>
DougDB3DMolFile

> <Tox>
-6.277

> <CAS>
26761-40-0

$$$$

  CDK

  6  5  0  0  0  0  0  0  0  0999 V2000
    2.4750   -0.0000    0.0000 C   0  0  0  0  0  0  0  0  0  0  0  0
    1.6500   -0.0000    0.0000 C   0  0  0  0  0  0  0  0  0  0  0  0
    0.8250    0.0000    0.0000 C   0  0  0  0  0  0  0  0  0  0  0  0
    0.0000    0.0000    0.0000 C   0  0  0  0  0  0  0  0  0  0  0  0
   -0.8250    0.0000    0.0000 C   0  0  0  0  0  0  0  0  0  0  0  0
   -1.6500    0.0000    0.0000 C   0  0  0  0  0  0  0  0  0  0  0  0
  1  2  3  0  0  0  0 
  2  3  1  0  0  0  0 
  3  4  1  0  0  0  0 
  4  5  1  0  0  0  0 
  5  6  1  0  0  0  0 
M  END
> <Name>
HEXYNE

> <Source>
Smiles

> <Tox>
2.134

> <CAS>
26856-30-4

$$$$

  CDK

  5  4  0  0  0  0  0  0  0  0999 V2000
    1.2127    2.0988    0.0000 Cl  0  0  0  0  0  0  0  0  0  0  0  0
    1.2127    0.6996    0.0000 C   0  0  0  0  0  0  0  0  0  0  0  0
    0.0000    0.0000    0.0000 C   0  0  0  0  0  0  0  0  0  0  0  0
    2.4253    0.0000    0.0000 C   0  0  0  0  0  0  0  0  0  0  0  0
    3.6380    0.6996    0.0000 Cl  0  0  0  0  0  0  0  0  0  0  0  0
  1  2  1  0  0  0  0 
  2  3  1  0  0  0  0 
  2  4  2  0  0  0  0 
  4  5  1  0  0  0  0 
M  END
> <Name>
DICHLOROPROPENE

> <Source>
IndexNet2DMolFile

> <Tox>
1.380

> <CAS>
26952-23-8

$$$$

  CDK

 12 13  0  0  0  0  0  0  0  0999 V2000
   -1.3043   -0.0678    0.2610 C   0  0  0  0  0  0  0  0  0  0  0  0
    0.0818   -0.2587    0.1389 C   0  0  0  0  0  0  0  0  0  0  0  0
   -2.2461   -1.2102    0.4864 C   0  0  0  0  0  0  0  0  0  0  0  0
   -1.8569    1.2103    0.1755 C   0  0  0  0  0  0  0  0  0  0  0  0
    0.9188    0.8627   -0.0728 C   0  0  0  0  0  0  0  0  0  0  0  0
    0.6554   -1.5379    0.2221 C   0  0  0  0  0  0  0  0  0  0  0  0
   -2.7569   -1.8100   -0.8164 C   0  0  0  0  0  0  0  0  0  0  0  0
   -1.0339    2.3131   -0.0327 C   0  0  0  0  0  0  0  0  0  0  0  0
    0.3453    2.1419   -0.1563 C   0  0  0  0  0  0  0  0  0  0  0  0
    2.3048    0.6719   -0.1950 C   0  0  0  0  0  0  0  0  0  0  0  0
    2.0344   -1.7091    0.0986 C   0  0  0  0  0  0  0  0  0  0  0  0
    2.8576   -0.6063   -0.1095 C   0  0  0  0  0  0  0  0  0  0  0  0
  1  2  1  0  0  0  0 
  1  3  1  0  0  0  0 
  1  4  2  0  0  0  0 
  2  5  1  0  0  0  0 
  2  6  2  0  0  0  0 
  3  7  1  0  0  0  0 
  4  8  1  0  0  0  0 
  5  9  1  0  0  0  0 
  5 10  2  0  0  0  0 
  6 11  1  0  0  0  0 
  9  8  2  0  0  0  0 
 10 12  1  0  0  0  0 
 11 12  2  0  0  0  0 
M  END
> <Name>
ETHYLNAPHTHALENE

> <Source>
Chemidplus3DMolFile

> <Tox>
-1.282

> <CAS>
27138-19-8

$$$$

  CDK

  9  8  0  0  0  0  0  0  0  0999 V2000
    0.0000   -0.0000    0.0000 C   0  0  0  0  0  0  0  0  0  0  0  0
    1.1261   -0.6775    0.0000 C   0  0  0  0  0  0  0  0  0  0  0  0
    2.2523   -0.0000    0.0000 C   0  0  0  0  0  0  0  0  0  0  0  0
    3.4151   -0.6775    0.0000 C   0  0  0  0  0  0  0  0  0  0  0  0
    4.5412   -0.0000    0.0000 C   0  0  0  0  0  0  0  0  0  0  0  0
    5.7040   -0.6775    0.0000 C   0  0  0  0  0  0  0  0  0  0  0  0
    6.8301   -0.0000    0.0000 C   0  0  0  0  0  0  0  0  0  0  0  0
    7.9929   -0.6775    0.0000 C   0  0  0  0  0  0  0  0  0  0  0  0
    9.1557   -0.0000    0.0000 C   0  0  0  0  0  0  0  0  0  0  0  0
  1  2  1  0  0  0  0 
  2  3  2  0  0  0  0 
  3  4  1  0  0  0  0 
  4  5  1  0  0  0  0 
  5  6  1  0  0  0  0 
  6  7  1  0  0  0  0 
  7  8  1  0  0  0  0 
  8  9  1  0  0  0  0 
M  END
> <Name>
NONENE

> <Source>
DSSTox2DMolFile

> <Tox>
0.574

> <CAS>
27215-95-8

$$$$

  CDK

 20 21  0  0  0  0  0  0  0  0999 V2000
    6.9205   -2.6873    0.0000 C   0  0  0  0  0  0  0  0  0  0  0  0
    5.7688   -2.0025    0.0000 N   0  0  0  0  0  0  0  0  0  0  0  0
    8.0721   -2.0128    0.0000 C   0  0  0  0  0  0  0  0  0  0  0  0
    6.9205   -3.9842    0.0000 O   0  0  0  0  0  0  0  0  0  0  0  0
    5.7688   -0.6744    0.0000 N   0  0  0  0  0  0  0  0  0  0  0  0
    4.6482   -2.6769    0.0000 C   0  0  0  0  0  0  0  0  0  0  0  0
    8.0721   -0.6744    0.0000 C   0  0  0  0  0  0  0  0  0  0  0  0
    9.2238   -2.6976    0.0000 Cl  0  0  0  0  0  0  0  0  0  0  0  0
    6.9101   -0.0311    0.0000 C   0  0  0  0  0  0  0  0  0  0  0  0
    3.4965   -2.0025    0.0000 C   0  0  0  0  0  0  0  0  0  0  0  0
    4.6482   -4.0049    0.0000 C   0  0  0  0  0  0  0  0  0  0  0  0
    9.2238   -0.0000    0.0000 N   0  0  0  0  0  0  0  0  0  0  0  0
    2.3449   -2.6873    0.0000 C   0  0  0  0  0  0  0  0  0  0  0  0
    3.4965   -4.6586    0.0000 C   0  0  0  0  0  0  0  0  0  0  0  0
   10.3755   -0.6640    0.0000 C   0  0  0  0  0  0  0  0  0  0  0  0
    1.1724   -2.0128    0.0000 C   0  0  0  0  0  0  0  0  0  0  0  0
    2.3449   -3.9842    0.0000 C   0  0  0  0  0  0  0  0  0  0  0  0
    0.0000   -1.3696    0.0000 F   0  0  0  0  0  0  0  0  0  0  0  0
    1.8261   -0.8404    0.0000 F   0  0  0  0  0  0  0  0  0  0  0  0
    0.5188   -3.1957    0.0000 F   0  0  0  0  0  0  0  0  0  0  0  0
  1  2  1  0  0  0  0 
  1  3  1  0  0  0  0 
  1  4  2  0  0  0  0 
  2  5  1  0  0  0  0 
  2  6  1  0  0  0  0 
  3  7  2  0  0  0  0 
  3  8  1  0  0  0  0 
  5  9  2  0  0  0  0 
  6 10  1  0  0  0  0 
  6 11  2  0  0  0  0 
  7  9  1  0  0  0  0 
  7 12  1  0  0  0  0 
 13 10  2  0  0  0  0 
 11 14  1  0  0  0  0 
 12 15  1  0  0  0  0 
 16 13  1  0  0  0  0 
 13 17  1  0  0  0  0 
 17 14  2  0  0  0  0 
 16 18  1  0  0  0  0 
 16 19  1  0  0  0  0 
 16 20  1  0  0  0  0 
M  END
> <Name>
NORFLURAZON

> <Source>
DSSTox2DMolFile

> <Tox>
-7.539

> <CAS>
27314-13-2

$$$$

  CDK

 28 28  0  0  0  0  0  0  0  0999 V2000
    3.4538   -9.9746    0.0000 C   0  0  0  0  0  0  0  0  0  0  0  0
    2.3071  -10.6377    0.0000 C   0  0  0  0  0  0  0  0  0  0  0  0
    3.4538   -8.6483    0.0000 C   0  0  0  0  0  0  0  0  0  0  0  0
    4.6143  -10.6377    0.0000 C   0  0  0  0  0  0  0  0  0  0  0  0
    1.1467   -9.9746    0.0000 C   0  0  0  0  0  0  0  0  0  0  0  0
    2.3071   -7.9714    0.0000 C   0  0  0  0  0  0  0  0  0  0  0  0
    4.6143   -7.9714    0.0000 C   0  0  0  0  0  0  0  0  0  0  0  0
    4.6143  -11.9640    0.0000 O   0  0  0  0  0  0  0  0  0  0  0  0
    5.7471   -9.9746    0.0000 O   0  0  0  0  0  0  0  0  0  0  0  0
    1.1467   -8.6483    0.0000 C   0  0  0  0  0  0  0  0  0  0  0  0
    5.7471   -8.6483    0.0000 O   0  0  0  0  0  0  0  0  0  0  0  0
    4.6143   -6.6451    0.0000 O   0  0  0  0  0  0  0  0  0  0  0  0
    6.8938  -10.6377    0.0000 C   0  0  0  0  0  0  0  0  0  0  0  0
    3.4538   -5.9958    0.0000 C   0  0  0  0  0  0  0  0  0  0  0  0
    8.0543   -9.9746    0.0000 C   0  0  0  0  0  0  0  0  0  0  0  0
    3.4538   -4.6696    0.0000 C   0  0  0  0  0  0  0  0  0  0  0  0
    9.2009  -10.6377    0.0000 C   0  0  0  0  0  0  0  0  0  0  0  0
    2.3071   -3.9926    0.0000 C   0  0  0  0  0  0  0  0  0  0  0  0
   10.3614   -9.9746    0.0000 C   0  0  0  0  0  0  0  0  0  0  0  0
    2.3071   -2.6663    0.0000 C   0  0  0  0  0  0  0  0  0  0  0  0
   11.5081  -10.6377    0.0000 C   0  0  0  0  0  0  0  0  0  0  0  0
    1.1467   -2.0032    0.0000 C   0  0  0  0  0  0  0  0  0  0  0  0
   12.6686   -9.9746    0.0000 C   0  0  0  0  0  0  0  0  0  0  0  0
    1.1467   -0.6769    0.0000 C   0  0  0  0  0  0  0  0  0  0  0  0
   12.6686   -8.6483    0.0000 C   0  0  0  0  0  0  0  0  0  0  0  0
   13.8152  -10.6377    0.0000 C   0  0  0  0  0  0  0  0  0  0  0  0
    0.0000   -0.0000    0.0000 C   0  0  0  0  0  0  0  0  0  0  0  0
    2.3071   -0.0000    0.0000 C   0  0  0  0  0  0  0  0  0  0  0  0
  1  2  2  0  0  0  0 
  1  3  1  0  0  0  0 
  1  4  1  0  0  0  0 
  2  5  1  0  0  0  0 
  6  3  2  0  0  0  0 
  3  7  1  0  0  0  0 
  4  8  2  0  0  0  0 
  4  9  1  0  0  0  0 
  5 10  2  0  0  0  0 
 10  6  1  0  0  0  0 
  7 11  2  0  0  0  0 
  7 12  1  0  0  0  0 
  9 13  1  0  0  0  0 
 12 14  1  0  0  0  0 
 13 15  1  0  0  0  0 
 14 16  1  0  0  0  0 
 15 17  1  0  0  0  0 
 16 18  1  0  0  0  0 
 17 19  1  0  0  0  0 
 18 20  1  0  0  0  0 
 19 21  1  0  0  0  0 
 20 22  1  0  0  0  0 
 21 23  1  0  0  0  0 
 22 24  1  0  0  0  0 
 23 25  1  0  0  0  0 
 23 26  1  0  0  0  0 
 24 27  1  0  0  0  0 
 24 28  1  0  0  0  0 
M  END
> <Name>
DIISOOCTYL PHTHALATE

> <Source>
DSSTox2DMolFile

> <Tox>
-5.260

> <CAS>
27554-26-3

$$$$

  CDK

 10 10  0  0  0  0  0  0  0  0999 V2000
    1.3672    1.8943   -0.0004 F   0  0  0  0  0  0  0  0  0  0  0  0
    0.6975    0.7345    0.0002 C   0  0  0  0  0  0  0  0  0  0  0  0
   -0.6974    0.7345    0.0002 C   0  0  0  0  0  0  0  0  0  0  0  0
    1.3949   -0.4736    0.0001 C   0  0  0  0  0  0  0  0  0  0  0  0
   -1.3671    1.8943    0.0003 F   0  0  0  0  0  0  0  0  0  0  0  0
   -1.3948   -0.4736    0.0001 C   0  0  0  0  0  0  0  0  0  0  0  0
    2.7341   -0.4738   -0.0001 F   0  0  0  0  0  0  0  0  0  0  0  0
    0.6973   -1.6816    0.0001 C   0  0  0  0  0  0  0  0  0  0  0  0
   -2.7342   -0.4735   -0.0005 F   0  0  0  0  0  0  0  0  0  0  0  0
   -0.6975   -1.6816    0.0001 C   0  0  0  0  0  0  0  0  0  0  0  0
  1  2  1  0  0  0  0 
  2  3  1  0  0  0  0 
  2  4  2  0  0  0  0 
  5  3  1  0  0  0  0 
  3  6  2  0  0  0  0 
  7  4  1  0  0  0  0 
  4  8  1  0  0  0  0 
  9  6  1  0  0  0  0 
  6 10  1  0  0  0  0 
  8 10  2  0  0  0  0 
M  END
> <Name>
TETRAFLUOROBENZENE

> <Source>
Chemidplus3DMolFile

> <Tox>
1.775

> <CAS>
28016-01-5

$$$$

  CDK

 16 16  0  0  0  0  0  0  0  0999 V2000
    6.9625   -1.3037    0.0000 C   0  0  0  0  0  0  0  0  0  0  0  0
    6.9625   -0.0000    0.0000 O   0  0  0  0  0  0  0  0  0  0  0  0
    5.7882   -1.9880    0.0000 S   0  0  0  0  0  0  0  0  0  0  0  0
    8.0905   -1.9880    0.0000 N   0  0  0  0  0  0  0  0  0  0  0  0
    4.6601   -1.3037    0.0000 C   0  0  0  0  0  0  0  0  0  0  0  0
    8.0905   -3.3194    0.0000 C   0  0  0  0  0  0  0  0  0  0  0  0
    9.2463   -1.3037    0.0000 C   0  0  0  0  0  0  0  0  0  0  0  0
    3.4859   -1.9880    0.0000 C   0  0  0  0  0  0  0  0  0  0  0  0
    9.2463   -3.9759    0.0000 C   0  0  0  0  0  0  0  0  0  0  0  0
    9.2463   -0.0000    0.0000 C   0  0  0  0  0  0  0  0  0  0  0  0
    2.3023   -1.3407    0.0000 C   0  0  0  0  0  0  0  0  0  0  0  0
    3.4859   -3.3194    0.0000 C   0  0  0  0  0  0  0  0  0  0  0  0
    1.1743   -1.9880    0.0000 C   0  0  0  0  0  0  0  0  0  0  0  0
    2.3023   -3.9759    0.0000 C   0  0  0  0  0  0  0  0  0  0  0  0
    1.1743   -3.3194    0.0000 C   0  0  0  0  0  0  0  0  0  0  0  0
    0.0000   -3.9667    0.0000 Cl  0  0  0  0  0  0  0  0  0  0  0  0
  1  2  2  0  0  0  0 
  1  3  1  0  0  0  0 
  1  4  1  0  0  0  0 
  3  5  1  0  0  0  0 
  4  6  1  0  0  0  0 
  4  7  1  0  0  0  0 
  5  8  1  0  0  0  0 
  6  9  1  0  0  0  0 
  7 10  1  0  0  0  0 
  8 11  2  0  0  0  0 
  8 12  1  0  0  0  0 
 11 13  1  0  0  0  0 
 12 14  2  0  0  0  0 
 13 15  2  0  0  0  0 
 14 15  1  0  0  0  0 
 15 16  1  0  0  0  0 
M  END
> <Name>
THIOBENCARB

> <Source>
DSSTox2DMolFile

> <Tox>
-4.658

> <CAS>
28249-77-6

$$$$

  CDK

 15 16  0  0  0  0  0  0  0  0999 V2000
    1.4241   -0.8429    0.0000 C   0  0  0  0  0  0  0  0  0  0  0  0
    2.1386   -0.4304    0.0000 C   0  0  0  0  0  0  0  0  0  0  0  0
    0.7097   -0.4304    0.0000 C   0  0  0  0  0  0  0  0  0  0  0  0
    2.1386    0.3946    0.0000 C   0  0  0  0  0  0  0  0  0  0  0  0
    0.7097    0.3946    0.0000 C   0  0  0  0  0  0  0  0  0  0  0  0
   -0.0048   -0.8429    0.0000 O   0  0  0  0  0  0  0  0  0  0  0  0
    1.4241    0.8071    0.0000 C   0  0  0  0  0  0  0  0  0  0  0  0
   -0.7193   -0.4304    0.0000 C   0  0  0  0  0  0  0  0  0  0  0  0
   -0.7193    0.3946    0.0000 C   0  0  0  0  0  0  0  0  0  0  0  0
   -1.4337   -0.8429    0.0000 C   0  0  0  0  0  0  0  0  0  0  0  0
    0.1057    0.3946    0.0000 Cl  0  0  0  0  0  0  0  0  0  0  0  0
   -1.4337    0.8071    0.0000 C   0  0  0  0  0  0  0  0  0  0  0  0
   -2.1482   -0.4304    0.0000 C   0  0  0  0  0  0  0  0  0  0  0  0
   -1.4337   -1.6679    0.0000 Cl  0  0  0  0  0  0  0  0  0  0  0  0
   -2.1482    0.3946    0.0000 C   0  0  0  0  0  0  0  0  0  0  0  0
  1  2  1  0  0  0  0 
  1  3  2  0  0  0  0 
  2  4  2  0  0  0  0 
  5  3  1  0  0  0  0 
  3  6  1  0  0  0  0 
  4  7  1  0  0  0  0 
  7  5  2  0  0  0  0 
  6  8  1  0  0  0  0 
  8  9  1  0  0  0  0 
  8 10  2  0  0  0  0 
  9 11  1  0  0  0  0 
  9 12  2  0  0  0  0 
 13 10  1  0  0  0  0 
 10 14  1  0  0  0  0 
 12 15  1  0  0  0  0 
 15 13  2  0  0  0  0 
M  END
> <Name>
2,6-Dichlorodiphenyl ether

> <Source>
Smiles

> <Tox>
-2.886

> <CAS>
28419-69-4

$$$$

  CDK

 12 11  0  0  0  0  0  0  0  0999 V2000
    5.5969    1.2127    0.0000 F   0  0  0  0  0  0  0  0  0  0  0  0
    4.1977    1.2127    0.0000 C   0  0  0  0  0  0  0  0  0  0  0  0
    3.4981    2.4253    0.0000 O   0  0  0  0  0  0  0  0  0  0  0  0
    2.0988    2.4253    0.0000 C   0  0  0  0  0  0  0  0  0  0  0  0
    1.3992    1.2127    0.0000 C   0  0  0  0  0  0  0  0  0  0  0  0
    1.3992    3.6380    0.0000 C   0  0  0  0  0  0  0  0  0  0  0  0
    2.0988    0.0000    0.0000 F   0  0  0  0  0  0  0  0  0  0  0  0
    0.3265    0.3265    0.0000 F   0  0  0  0  0  0  0  0  0  0  0  0
    0.3265    2.1455    0.0000 F   0  0  0  0  0  0  0  0  0  0  0  0
    0.0000    3.6380    0.0000 F   0  0  0  0  0  0  0  0  0  0  0  0
    1.1660    5.0372    0.0000 F   0  0  0  0  0  0  0  0  0  0  0  0
    2.7052    4.1044    0.0000 F   0  0  0  0  0  0  0  0  0  0  0  0
  1  2  1  0  0  0  0 
  2  3  1  0  0  0  0 
  3  4  1  0  0  0  0 
  4  5  1  0  0  0  0 
  4  6  1  0  0  0  0 
  5  7  1  0  0  0  0 
  5  8  1  0  0  0  0 
  5  9  1  0  0  0  0 
  6 10  1  0  0  0  0 
  6 11  1  0  0  0  0 
  6 12  1  0  0  0  0 
M  END
> <Name>
Sevoflurane

> <Source>
IndexNet2DMolFile

> <Tox>
2.286

> <CAS>
28523-86-6

$$$$

  CDK

 30 30  0  0  0  0  0  0  0  0999 V2000
    2.2907   -2.0009    0.0000 C   0  0  0  0  0  0  0  0  0  0  0  0
    2.2907   -3.3256    0.0000 C   0  0  0  0  0  0  0  0  0  0  0  0
    3.4360   -1.3247    0.0000 C   0  0  0  0  0  0  0  0  0  0  0  0
    1.1315   -1.3247    0.0000 C   0  0  0  0  0  0  0  0  0  0  0  0
    3.4360   -3.9880    0.0000 C   0  0  0  0  0  0  0  0  0  0  0  0
    1.1315   -3.9880    0.0000 C   0  0  0  0  0  0  0  0  0  0  0  0
    3.4360   -0.0000    0.0000 O   0  0  0  0  0  0  0  0  0  0  0  0
    4.5951   -2.0009    0.0000 O   0  0  0  0  0  0  0  0  0  0  0  0
    0.0000   -2.0009    0.0000 C   0  0  0  0  0  0  0  0  0  0  0  0
    4.5951   -3.3256    0.0000 O   0  0  0  0  0  0  0  0  0  0  0  0
    3.4360   -5.3127    0.0000 O   0  0  0  0  0  0  0  0  0  0  0  0
    0.0000   -3.3256    0.0000 C   0  0  0  0  0  0  0  0  0  0  0  0
    5.7405   -1.3247    0.0000 C   0  0  0  0  0  0  0  0  0  0  0  0
    4.5951   -5.9889    0.0000 C   0  0  0  0  0  0  0  0  0  0  0  0
    6.8996   -2.0009    0.0000 C   0  0  0  0  0  0  0  0  0  0  0  0
    4.5951   -7.3136    0.0000 C   0  0  0  0  0  0  0  0  0  0  0  0
    8.0588   -1.3247    0.0000 C   0  0  0  0  0  0  0  0  0  0  0  0
    5.7405   -7.9760    0.0000 C   0  0  0  0  0  0  0  0  0  0  0  0
    9.2041   -2.0009    0.0000 C   0  0  0  0  0  0  0  0  0  0  0  0
    5.7405   -9.3007    0.0000 C   0  0  0  0  0  0  0  0  0  0  0  0
   10.3632   -1.3247    0.0000 C   0  0  0  0  0  0  0  0  0  0  0  0
    6.8996   -9.9769    0.0000 C   0  0  0  0  0  0  0  0  0  0  0  0
   11.4948   -2.0009    0.0000 C   0  0  0  0  0  0  0  0  0  0  0  0
    6.8996  -11.3016    0.0000 C   0  0  0  0  0  0  0  0  0  0  0  0
   12.6401   -1.3247    0.0000 C   0  0  0  0  0  0  0  0  0  0  0  0
    8.0588  -11.9639    0.0000 C   0  0  0  0  0  0  0  0  0  0  0  0
   13.7992   -2.0009    0.0000 C   0  0  0  0  0  0  0  0  0  0  0  0
   12.6401   -0.0000    0.0000 C   0  0  0  0  0  0  0  0  0  0  0  0
    8.0588  -13.2887    0.0000 C   0  0  0  0  0  0  0  0  0  0  0  0
    9.2041  -11.3016    0.0000 C   0  0  0  0  0  0  0  0  0  0  0  0
  1  2  2  0  0  0  0 
  1  3  1  0  0  0  0 
  1  4  1  0  0  0  0 
  2  5  1  0  0  0  0 
  2  6  1  0  0  0  0 
  3  7  2  0  0  0  0 
  3  8  1  0  0  0  0 
  4  9  2  0  0  0  0 
  5 10  2  0  0  0  0 
  5 11  1  0  0  0  0 
  6 12  2  0  0  0  0 
  8 13  1  0  0  0  0 
  9 12  1  0  0  0  0 
 11 14  1  0  0  0  0 
 13 15  1  0  0  0  0 
 14 16  1  0  0  0  0 
 15 17  1  0  0  0  0 
 16 18  1  0  0  0  0 
 17 19  1  0  0  0  0 
 18 20  1  0  0  0  0 
 19 21  1  0  0  0  0 
 20 22  1  0  0  0  0 
 21 23  1  0  0  0  0 
 22 24  1  0  0  0  0 
 23 25  1  0  0  0  0 
 24 26  1  0  0  0  0 
 25 27  1  0  0  0  0 
 25 28  1  0  0  0  0 
 26 29  1  0  0  0  0 
 26 30  1  0  0  0  0 
M  END
> <Name>
DIISONONYL PHTHALATE

> <Source>
DSSTox2DMolFile

> <Tox>
-6.268

> <CAS>
28553-12-0

$$$$

  CDK

 24 24  0  0  0  0  0  0  0  0999 V2000
    4.6171   -4.6450    0.0000 C   0  0  0  0  0  0  0  0  0  0  0  0
    4.6171   -5.9761    0.0000 C   0  0  0  0  0  0  0  0  0  0  0  0
    3.4628   -3.9934    0.0000 C   0  0  0  0  0  0  0  0  0  0  0  0
    5.7713   -3.9934    0.0000 N   0  0  0  0  0  0  0  0  0  0  0  0
    3.4628   -6.6463    0.0000 C   0  0  0  0  0  0  0  0  0  0  0  0
    5.7713   -6.6463    0.0000 N   0  0  0  0  0  0  0  0  0  0  0  0
    2.3085   -4.6450    0.0000 C   0  0  0  0  0  0  0  0  0  0  0  0
    3.4628   -2.6623    0.0000 N   0  0  0  0  0  0  0  0  0  0  0  0
    6.9256   -4.6450    0.0000 O   0  0  0  0  0  0  0  0  0  0  0  0
    5.7713   -2.6623    0.0000 O   0  0  0  0  0  0  0  0  0  0  0  0
    2.3085   -5.9761    0.0000 C   0  0  0  0  0  0  0  0  0  0  0  0
    3.4628   -7.9775    0.0000 C   0  0  0  0  0  0  0  0  0  0  0  0
    1.1543   -3.9934    0.0000 N   0  0  0  0  0  0  0  0  0  0  0  0
    4.6171   -1.9827    0.0000 C   0  0  0  0  0  0  0  0  0  0  0  0
    2.3085   -1.9827    0.0000 C   0  0  0  0  0  0  0  0  0  0  0  0
    2.1317   -7.9775    0.0000 F   0  0  0  0  0  0  0  0  0  0  0  0
    4.7939   -7.9775    0.0000 F   0  0  0  0  0  0  0  0  0  0  0  0
    3.4628   -9.3086    0.0000 F   0  0  0  0  0  0  0  0  0  0  0  0
    0.0000   -4.6450    0.0000 O   0  0  0  0  0  0  0  0  0  0  0  0
    1.1543   -2.6623    0.0000 O   0  0  0  0  0  0  0  0  0  0  0  0
    4.6171   -0.6609    0.0000 C   0  0  0  0  0  0  0  0  0  0  0  0
    2.3085   -0.6609    0.0000 C   0  0  0  0  0  0  0  0  0  0  0  0
    5.7713   -0.0000    0.0000 C   0  0  0  0  0  0  0  0  0  0  0  0
    1.1543   -0.0000    0.0000 C   0  0  0  0  0  0  0  0  0  0  0  0
  1  2  1  0  0  0  0 
  1  3  2  0  0  0  0 
  1  4  1  0  0  0  0 
  2  5  2  0  0  0  0 
  2  6  1  0  0  0  0 
  3  7  1  0  0  0  0 
  3  8  1  0  0  0  0 
  4  9  1  0  0  0  0 
  4 10  2  0  0  0  0 
  5 11  1  0  0  0  0 
  5 12  1  0  0  0  0 
  7 11  2  0  0  0  0 
  7 13  1  0  0  0  0 
  8 14  1  0  0  0  0 
  8 15  1  0  0  0  0 
 12 16  1  0  0  0  0 
 12 17  1  0  0  0  0 
 12 18  1  0  0  0  0 
 13 19  1  0  0  0  0 
 13 20  2  0  0  0  0 
 14 21  1  0  0  0  0 
 15 22  1  0  0  0  0 
 21 23  1  0  0  0  0 
 22 24  1  0  0  0  0 
M  CHG  1   4   1
M  CHG  1   9  -1
M  CHG  1  13   1
M  CHG  1  19  -1
M  END
> <Name>
PRODIAMINE

> <Source>
DSSTox2DMolFile

> <Tox>
-7.606

> <CAS>
29091-21-2

$$$$

  CDK

 25 26  0  0  0  0  0  0  0  0999 V2000
    2.9937    2.5945    0.0000 O   0  0  0  0  0  0  0  0  0  0  0  0
    3.4927    3.4927    0.0000 C   0  0  0  0  0  0  0  0  0  0  0  0
    1.9958    2.5945    0.0000 C   0  0  0  0  0  0  0  0  0  0  0  0
    2.9937    4.3409    0.0000 N   0  0  0  0  0  0  0  0  0  0  0  0
    4.4906    3.4927    0.0000 C   0  0  0  0  0  0  0  0  0  0  0  0
    1.4969    3.4927    0.0000 O   0  0  0  0  0  0  0  0  0  0  0  0
    1.4969    1.7463    0.0000 C   0  0  0  0  0  0  0  0  0  0  0  0
    1.9958    4.3409    0.0000 O   0  0  0  0  0  0  0  0  0  0  0  0
    4.9895    4.3409    0.0000 C   0  0  0  0  0  0  0  0  0  0  0  0
    4.9895    2.5945    0.0000 C   0  0  0  0  0  0  0  0  0  0  0  0
    1.9958    0.8981    0.0000 C   0  0  0  0  0  0  0  0  0  0  0  0
    0.4990    1.7463    0.0000 C   0  0  0  0  0  0  0  0  0  0  0  0
    1.4969    5.1891    0.0000 C   0  0  0  0  0  0  0  0  0  0  0  0
    4.4906    5.1891    0.0000 O   0  0  0  0  0  0  0  0  0  0  0  0
    5.9874    4.3409    0.0000 C   0  0  0  0  0  0  0  0  0  0  0  0
    4.4906    1.7463    0.0000 O   0  0  0  0  0  0  0  0  0  0  0  0
    5.9874    2.5945    0.0000 C   0  0  0  0  0  0  0  0  0  0  0  0
    1.4969    0.0000    0.0000 C   0  0  0  0  0  0  0  0  0  0  0  0
    0.0000    0.8981    0.0000 C   0  0  0  0  0  0  0  0  0  0  0  0
    0.4990    5.1891    0.0000 C   0  0  0  0  0  0  0  0  0  0  0  0
    4.9895    6.0872    0.0000 C   0  0  0  0  0  0  0  0  0  0  0  0
    6.4864    5.1891    0.0000 Cl  0  0  0  0  0  0  0  0  0  0  0  0
    6.4864    3.4927    0.0000 C   0  0  0  0  0  0  0  0  0  0  0  0
    4.9895    0.8981    0.0000 C   0  0  0  0  0  0  0  0  0  0  0  0
    0.4990    0.0000    0.0000 C   0  0  0  0  0  0  0  0  0  0  0  0
  1  2  1  0  0  0  0 
  1  3  1  0  0  0  0 
  2  4  2  0  0  0  0 
  2  5  1  0  0  0  0 
  3  6  2  0  0  0  0 
  3  7  1  0  0  0  0 
  4  8  1  0  0  0  0 
  9  5  2  0  0  0  0 
  5 10  1  0  0  0  0 
 11  7  2  0  0  0  0 
  7 12  1  0  0  0  0 
  8 13  1  0  0  0  0 
  9 14  1  0  0  0  0 
 15  9  1  0  0  0  0 
 10 16  1  0  0  0  0 
 10 17  2  0  0  0  0 
 18 11  1  0  0  0  0 
 12 19  2  0  0  0  0 
 13 20  1  0  0  0  0 
 14 21  1  0  0  0  0 
 15 22  1  0  0  0  0 
 23 15  2  0  0  0  0 
 16 24  1  0  0  0  0 
 17 23  1  0  0  0  0 
 25 18  2  0  0  0  0 
 19 25  1  0  0  0  0 
M  END
> <Name>
BENZOXIMATE

> <Source>
NIST2DMolFile

> <Tox>
-5.471

> <CAS>
29104-30-1

$$$$

  CDK

 11 11  0  0  0  0  0  0  0  0999 V2000
    0.0000    2.0988    0.0000 C   0  0  0  0  0  0  0  0  0  0  0  0
    0.0000    0.6996    0.0000 C   0  0  0  0  0  0  0  0  0  0  0  0
    1.2127    2.7984    0.0000 C   0  0  0  0  0  0  0  0  0  0  0  0
    1.2127    0.0000    0.0000 C   0  0  0  0  0  0  0  0  0  0  0  0
    2.4253    2.0988    0.0000 C   0  0  0  0  0  0  0  0  0  0  0  0
    2.4253    0.6996    0.0000 C   0  0  0  0  0  0  0  0  0  0  0  0
    3.6380    2.7984    0.0000 C   0  0  0  0  0  0  0  0  0  0  0  0
    4.8506    2.0988    0.0000 C   0  0  0  0  0  0  0  0  0  0  0  0
    3.6380    4.1977    0.0000 C   0  0  0  0  0  0  0  0  0  0  0  0
    6.0633    2.7984    0.0000 C   0  0  0  0  0  0  0  0  0  0  0  0
    7.2760    2.0988    0.0000 C   0  0  0  0  0  0  0  0  0  0  0  0
  1  2  2  0  0  0  0 
  1  3  1  0  0  0  0 
  2  4  1  0  0  0  0 
  5  3  2  0  0  0  0 
  4  6  2  0  0  0  0 
  6  5  1  0  0  0  0 
  5  7  1  0  0  0  0 
  7  8  1  0  0  0  0 
  7  9  1  0  0  0  0 
  8 10  1  0  0  0  0 
 10 11  1  0  0  0  0 
M  END
> <Name>
S-AMYLBENZENE

> <Source>
IndexNet2DMolFile

> <Tox>
-0.210

> <CAS>
29316-05-0

$$$$

  CDK

 16 18  0  0  0  0  0  0  0  0999 V2000
    2.4253    2.0988    0.0000 C   0  0  0  0  0  0  0  0  0  0  0  0
    2.4253    0.6996    0.0000 C   0  0  0  0  0  0  0  0  0  0  0  0
    3.6380    2.7984    0.0000 O   0  0  0  0  0  0  0  0  0  0  0  0
    1.2127    2.7984    0.0000 C   0  0  0  0  0  0  0  0  0  0  0  0
    3.6380    0.0000    0.0000 O   0  0  0  0  0  0  0  0  0  0  0  0
    1.2127    0.0000    0.0000 C   0  0  0  0  0  0  0  0  0  0  0  0
    4.8040    2.0988    0.0000 C   0  0  0  0  0  0  0  0  0  0  0  0
    0.0000    2.0988    0.0000 C   0  0  0  0  0  0  0  0  0  0  0  0
    4.8040    0.6996    0.0000 C   0  0  0  0  0  0  0  0  0  0  0  0
    0.0000    0.6996    0.0000 C   0  0  0  0  0  0  0  0  0  0  0  0
    6.0167    2.7984    0.0000 C   0  0  0  0  0  0  0  0  0  0  0  0
    6.0167    0.0000    0.0000 C   0  0  0  0  0  0  0  0  0  0  0  0
    7.2293    2.0988    0.0000 C   0  0  0  0  0  0  0  0  0  0  0  0
    7.2293    0.6996    0.0000 C   0  0  0  0  0  0  0  0  0  0  0  0
    8.4420    2.7984    0.0000 Cl  0  0  0  0  0  0  0  0  0  0  0  0
    8.4420    0.0000    0.0000 Cl  0  0  0  0  0  0  0  0  0  0  0  0
  1  2  2  0  0  0  0 
  1  3  1  0  0  0  0 
  1  4  1  0  0  0  0 
  2  5  1  0  0  0  0 
  2  6  1  0  0  0  0 
  7  3  1  0  0  0  0 
  4  8  2  0  0  0  0 
  5  9  1  0  0  0  0 
 10  6  2  0  0  0  0 
  9  7  2  0  0  0  0 
  7 11  1  0  0  0  0 
  8 10  1  0  0  0  0 
  9 12  1  0  0  0  0 
 13 11  2  0  0  0  0 
 12 14  2  0  0  0  0 
 14 13  1  0  0  0  0 
 13 15  1  0  0  0  0 
 14 16  1  0  0  0  0 
M  END
> <Name>
2,3-DICHLORODIBENZO-P-DIOXIN

> <Source>
IndexNet2DMolFile

> <Tox>
-5.533

> <CAS>
29446-15-9

$$$$

  CDK

 15 15  0  0  0  0  0  0  0  0999 V2000
    6.0599    1.5025    0.0000 C   0  0  0  0  0  0  0  0  0  0  0  0
    6.0599    0.5008    0.0000 C   0  0  0  0  0  0  0  0  0  0  0  0
    5.2085    0.0000    0.0000 S   0  0  0  0  0  0  0  0  0  0  0  0
    4.3571    0.4507    0.0000 C   0  0  0  0  0  0  0  0  0  0  0  0
    4.3571    1.5025    0.0000 C   0  0  0  0  0  0  0  0  0  0  0  0
    5.2085    1.9532    0.0000 C   0  0  0  0  0  0  0  0  0  0  0  0
    3.4557    1.9532    0.0000 C   0  0  0  0  0  0  0  0  0  0  0  0
    5.2085    3.0049    0.0000 C   0  0  0  0  0  0  0  0  0  0  0  0
    3.4557    3.0049    0.0000 C   0  0  0  0  0  0  0  0  0  0  0  0
    2.6043    1.5025    0.0000 O   0  0  0  0  0  0  0  0  0  0  0  0
    4.3571    3.4557    0.0000 C   0  0  0  0  0  0  0  0  0  0  0  0
    1.7529    1.9532    0.0000 C   0  0  0  0  0  0  0  0  0  0  0  0
    0.8514    1.5025    0.0000 N   0  0  0  0  0  0  0  0  0  0  0  0
    1.7529    3.0049    0.0000 O   0  0  0  0  0  0  0  0  0  0  0  0
    0.0000    1.9532    0.0000 C   0  0  0  0  0  0  0  0  0  0  0  0
  1  2  1  0  0  0  0 
  2  3  1  0  0  0  0 
  3  4  1  0  0  0  0 
  4  5  1  0  0  0  0 
  6  5  2  0  0  0  0 
  5  7  1  0  0  0  0 
  8  6  1  0  0  0  0 
  7  9  2  0  0  0  0 
  7 10  1  0  0  0  0 
 11  8  2  0  0  0  0 
  9 11  1  0  0  0  0 
 10 12  1  0  0  0  0 
 13 12  1  0  0  0  0 
 12 14  2  0  0  0  0 
 15 13  1  0  0  0  0 
M  END
> <Name>
ETHIOFENCARB

> <Source>
NIST2DMolFile

> <Tox>
-5.152

> <CAS>
29973-13-5

$$$$

  CDK

 10  9  0  0  0  0  0  0  0  0999 V2000
    2.3165   -2.3165    0.0000 P   0  0  0  0  0  0  0  0  0  0  0  0
    3.4603   -2.9750    0.0000 N   0  0  0  0  0  0  0  0  0  0  0  0
    1.6695   -3.4949    0.0000 O   0  0  0  0  0  0  0  0  0  0  0  0
    2.9635   -1.1611    0.0000 S   0  0  0  0  0  0  0  0  0  0  0  0
    1.1553   -1.6695    0.0000 O   0  0  0  0  0  0  0  0  0  0  0  0
    4.6098   -2.3049    0.0000 C   0  0  0  0  0  0  0  0  0  0  0  0
    2.3165   -0.0000    0.0000 C   0  0  0  0  0  0  0  0  0  0  0  0
    0.0000   -2.3396    0.0000 C   0  0  0  0  0  0  0  0  0  0  0  0
    4.6098   -0.9878    0.0000 O   0  0  0  0  0  0  0  0  0  0  0  0
    5.7767   -2.9635    0.0000 C   0  0  0  0  0  0  0  0  0  0  0  0
  1  2  1  0  0  0  0 
  1  3  2  0  0  0  0 
  1  4  1  0  0  0  0 
  1  5  1  0  0  0  0 
  2  6  1  0  0  0  0 
  4  7  1  0  0  0  0 
  5  8  1  0  0  0  0 
  6  9  2  0  0  0  0 
  6 10  1  0  0  0  0 
M  END
> <Name>
ACEPHATE

> <Source>
DSSTox2DMolFile

> <Tox>
-5.770

> <CAS>
30560-19-1

$$$$

  CDK

 18 20  0  0  0  0  0  0  0  0999 V2000
    3.4884    1.4950    0.0000 C   0  0  0  0  0  0  0  0  0  0  0  0
    3.4884    2.4917    0.0000 C   0  0  0  0  0  0  0  0  0  0  0  0
    4.3356    0.9967    0.0000 C   0  0  0  0  0  0  0  0  0  0  0  0
    2.6412    0.9967    0.0000 O   0  0  0  0  0  0  0  0  0  0  0  0
    2.6412    2.9900    0.0000 O   0  0  0  0  0  0  0  0  0  0  0  0
    4.3356    2.9900    0.0000 C   0  0  0  0  0  0  0  0  0  0  0  0
    5.1827    1.4950    0.0000 C   0  0  0  0  0  0  0  0  0  0  0  0
    4.3356    0.0000    0.0000 Cl  0  0  0  0  0  0  0  0  0  0  0  0
    1.7442    1.4950    0.0000 C   0  0  0  0  0  0  0  0  0  0  0  0
    1.7442    2.4917    0.0000 C   0  0  0  0  0  0  0  0  0  0  0  0
    5.1827    2.4917    0.0000 C   0  0  0  0  0  0  0  0  0  0  0  0
    4.3356    3.9867    0.0000 Cl  0  0  0  0  0  0  0  0  0  0  0  0
    6.0798    0.9967    0.0000 Cl  0  0  0  0  0  0  0  0  0  0  0  0
    0.8970    0.9967    0.0000 C   0  0  0  0  0  0  0  0  0  0  0  0
    0.8970    2.9900    0.0000 C   0  0  0  0  0  0  0  0  0  0  0  0
    6.0798    2.9900    0.0000 Cl  0  0  0  0  0  0  0  0  0  0  0  0
    0.0000    1.4950    0.0000 C   0  0  0  0  0  0  0  0  0  0  0  0
    0.0000    2.4917    0.0000 C   0  0  0  0  0  0  0  0  0  0  0  0
  2  1  2  0  0  0  0 
  3  1  1  0  0  0  0 
  1  4  1  0  0  0  0 
  5  2  1  0  0  0  0 
  2  6  1  0  0  0  0 
  7  3  2  0  0  0  0 
  3  8  1  0  0  0  0 
  4  9  1  0  0  0  0 
 10  5  1  0  0  0  0 
  6 11  2  0  0  0  0 
  6 12  1  0  0  0  0 
 11  7  1  0  0  0  0 
  7 13  1  0  0  0  0 
  9 14  2  0  0  0  0 
 10  9  1  0  0  0  0 
 15 10  2  0  0  0  0 
 11 16  1  0  0  0  0 
 14 17  1  0  0  0  0 
 18 15  1  0  0  0  0 
 17 18  2  0  0  0  0 
M  END
> <Name>
1,2,3,4-TETRACHLORODIBENZO-P-DIOXIN

> <Source>
NIST2DMolFile

> <Tox>
-7.319

> <CAS>
30746-58-8

$$$$

  CDK

 17 18  0  0  0  0  0  0  0  0999 V2000
    3.9977   -2.3017    0.0000 C   0  0  0  0  0  0  0  0  0  0  0  0
    3.3267   -3.4479    0.0000 C   0  0  0  0  0  0  0  0  0  0  0  0
    5.3209   -2.3017    0.0000 C   0  0  0  0  0  0  0  0  0  0  0  0
    3.3267   -1.1462    0.0000 C   0  0  0  0  0  0  0  0  0  0  0  0
    1.9942   -3.4479    0.0000 C   0  0  0  0  0  0  0  0  0  0  0  0
    3.9977   -4.6034    0.0000 Cl  0  0  0  0  0  0  0  0  0  0  0  0
    5.9918   -1.1462    0.0000 C   0  0  0  0  0  0  0  0  0  0  0  0
    5.9918   -3.4479    0.0000 C   0  0  0  0  0  0  0  0  0  0  0  0
    1.9942   -1.1462    0.0000 C   0  0  0  0  0  0  0  0  0  0  0  0
    1.3326   -2.3017    0.0000 C   0  0  0  0  0  0  0  0  0  0  0  0
    7.3244   -1.1462    0.0000 C   0  0  0  0  0  0  0  0  0  0  0  0
    7.3244   -3.4479    0.0000 C   0  0  0  0  0  0  0  0  0  0  0  0
    1.3326   -0.0000    0.0000 Cl  0  0  0  0  0  0  0  0  0  0  0  0
    0.0000   -2.3017    0.0000 Cl  0  0  0  0  0  0  0  0  0  0  0  0
    7.9860   -0.0000    0.0000 Cl  0  0  0  0  0  0  0  0  0  0  0  0
    7.9860   -2.3017    0.0000 C   0  0  0  0  0  0  0  0  0  0  0  0
    9.3185   -2.3017    0.0000 Cl  0  0  0  0  0  0  0  0  0  0  0  0
  1  2  2  0  0  0  0 
  1  3  1  0  0  0  0 
  1  4  1  0  0  0  0 
  2  5  1  0  0  0  0 
  2  6  1  0  0  0  0 
  3  7  2  0  0  0  0 
  3  8  1  0  0  0  0 
  4  9  2  0  0  0  0 
  5 10  2  0  0  0  0 
  7 11  1  0  0  0  0 
  8 12  2  0  0  0  0 
  9 10  1  0  0  0  0 
  9 13  1  0  0  0  0 
 10 14  1  0  0  0  0 
 11 15  1  0  0  0  0 
 11 16  2  0  0  0  0 
 16 12  1  0  0  0  0 
 16 17  1  0  0  0  0 
M  END
> <Name>
2',3,4,4',5'-PCB

> <Source>
DSSTox2DMolFile

> <Tox>
-5.047

> <CAS>
31508-00-6

$$$$

  CDK

  5  4  0  0  0  0  0  0  0  0999 V2000
    0.6531    1.2503    0.0000 Br  0  0  0  0  0  0  0  0  0  0  0  0
    1.0656    0.5359    0.0000 C   0  0  0  0  0  0  0  0  0  0  0  0
    0.6531   -0.1786    0.0000 C   0  0  0  0  0  0  0  0  0  0  0  0
   -0.1719   -0.1786    0.0000 C   0  0  0  0  0  0  0  0  0  0  0  0
   -0.9969   -0.1786    0.0000 C   0  0  0  0  0  0  0  0  0  0  0  0
  2  1  1  0  0  0  0 
  2  3  2  0  0  0  0 
  3  4  1  0  0  0  0 
  4  5  1  0  0  0  0 
M  END
> <Name>
1-BROMO-1-BUTENE

> <Source>
Smiles

> <Tox>
1.885

> <CAS>
31844-98-1

$$$$

  CDK

 16 17  0  0  0  0  0  0  0  0999 V2000
    8.4544    0.0000    0.0000 Cl  0  0  0  0  0  0  0  0  0  0  0  0
    7.2467    0.7080    0.0000 C   0  0  0  0  0  0  0  0  0  0  0  0
    6.0389    0.0000    0.0000 C   0  0  0  0  0  0  0  0  0  0  0  0
    7.2467    2.1240    0.0000 C   0  0  0  0  0  0  0  0  0  0  0  0
    4.8311    0.7080    0.0000 C   0  0  0  0  0  0  0  0  0  0  0  0
    6.0389    2.8320    0.0000 C   0  0  0  0  0  0  0  0  0  0  0  0
    4.8311    2.1240    0.0000 C   0  0  0  0  0  0  0  0  0  0  0  0
    6.0389    4.2064    0.0000 Cl  0  0  0  0  0  0  0  0  0  0  0  0
    3.6233    2.8320    0.0000 C   0  0  0  0  0  0  0  0  0  0  0  0
    2.4156    2.1240    0.0000 C   0  0  0  0  0  0  0  0  0  0  0  0
    3.6233    4.2064    0.0000 C   0  0  0  0  0  0  0  0  0  0  0  0
    1.2078    2.8320    0.0000 C   0  0  0  0  0  0  0  0  0  0  0  0
    2.4156    4.9144    0.0000 C   0  0  0  0  0  0  0  0  0  0  0  0
    1.2078    4.2064    0.0000 C   0  0  0  0  0  0  0  0  0  0  0  0
    2.4156    6.2888    0.0000 Cl  0  0  0  0  0  0  0  0  0  0  0  0
    0.0000    4.9144    0.0000 Cl  0  0  0  0  0  0  0  0  0  0  0  0
  1  2  1  0  0  0  0 
  2  3  2  0  0  0  0 
  2  4  1  0  0  0  0 
  3  5  1  0  0  0  0 
  6  4  2  0  0  0  0 
  5  7  2  0  0  0  0 
  7  6  1  0  0  0  0 
  6  8  1  0  0  0  0 
  7  9  1  0  0  0  0 
  9 10  2  0  0  0  0 
  9 11  1  0  0  0  0 
 10 12  1  0  0  0  0 
 13 11  2  0  0  0  0 
 12 14  2  0  0  0  0 
 14 13  1  0  0  0  0 
 13 15  1  0  0  0  0 
 14 16  1  0  0  0  0 
M  END
> <Name>
2,3',4,4'-TETRACHLOROBIPHENYL

> <Source>
IndexNet2DMolFile

> <Tox>
-4.335

> <CAS>
32598-10-0

$$$$

  CDK

 16 17  0  0  0  0  0  0  0  0999 V2000
    1.5020    0.9012    0.0000 C   0  0  0  0  0  0  0  0  0  0  0  0
    2.0026    0.0000    0.0000 Cl  0  0  0  0  0  0  0  0  0  0  0  0
    2.0026    1.7523    0.0000 C   0  0  0  0  0  0  0  0  0  0  0  0
    0.5007    0.9012    0.0000 C   0  0  0  0  0  0  0  0  0  0  0  0
    3.0039    1.7523    0.0000 C   0  0  0  0  0  0  0  0  0  0  0  0
    1.5020    2.6034    0.0000 C   0  0  0  0  0  0  0  0  0  0  0  0
    0.0000    1.7523    0.0000 C   0  0  0  0  0  0  0  0  0  0  0  0
    3.5046    2.6034    0.0000 C   0  0  0  0  0  0  0  0  0  0  0  0
    3.5046    0.9012    0.0000 C   0  0  0  0  0  0  0  0  0  0  0  0
    0.5007    2.6034    0.0000 C   0  0  0  0  0  0  0  0  0  0  0  0
    4.5059    2.6034    0.0000 C   0  0  0  0  0  0  0  0  0  0  0  0
    4.5059    0.9012    0.0000 C   0  0  0  0  0  0  0  0  0  0  0  0
    0.0000    3.5046    0.0000 Cl  0  0  0  0  0  0  0  0  0  0  0  0
    5.0065    3.5046    0.0000 Cl  0  0  0  0  0  0  0  0  0  0  0  0
    5.0065    1.7523    0.0000 C   0  0  0  0  0  0  0  0  0  0  0  0
    6.0078    1.7523    0.0000 Cl  0  0  0  0  0  0  0  0  0  0  0  0
  1  2  1  0  0  0  0 
  1  3  2  0  0  0  0 
  4  1  1  0  0  0  0 
  3  5  1  0  0  0  0 
  3  6  1  0  0  0  0 
  7  4  2  0  0  0  0 
  8  5  2  0  0  0  0 
  5  9  1  0  0  0  0 
  6 10  2  0  0  0  0 
 10  7  1  0  0  0  0 
 11  8  1  0  0  0  0 
  9 12  2  0  0  0  0 
 10 13  1  0  0  0  0 
 11 14  1  0  0  0  0 
 15 11  2  0  0  0  0 
 12 15  1  0  0  0  0 
 15 16  1  0  0  0  0 
M  END
> <Name>
2,3',4',5-TETRACHLOROBIPHENYL

> <Source>
NIST2DMolFile

> <Tox>
-4.389

> <CAS>
32598-11-1

$$$$

  CDK

 16 17  0  0  0  0  0  0  0  0999 V2000
    3.9959   -2.3100    0.0000 C   0  0  0  0  0  0  0  0  0  0  0  0
    5.3185   -2.3100    0.0000 C   0  0  0  0  0  0  0  0  0  0  0  0
    3.3253   -3.4557    0.0000 C   0  0  0  0  0  0  0  0  0  0  0  0
    3.3253   -1.1550    0.0000 C   0  0  0  0  0  0  0  0  0  0  0  0
    5.9892   -1.1550    0.0000 C   0  0  0  0  0  0  0  0  0  0  0  0
    5.9892   -3.4557    0.0000 C   0  0  0  0  0  0  0  0  0  0  0  0
    1.9933   -3.4557    0.0000 C   0  0  0  0  0  0  0  0  0  0  0  0
    1.9933   -1.1550    0.0000 C   0  0  0  0  0  0  0  0  0  0  0  0
    7.3211   -1.1550    0.0000 C   0  0  0  0  0  0  0  0  0  0  0  0
    7.3211   -3.4557    0.0000 C   0  0  0  0  0  0  0  0  0  0  0  0
    1.3320   -4.6106    0.0000 Cl  0  0  0  0  0  0  0  0  0  0  0  0
    1.3320   -2.3100    0.0000 C   0  0  0  0  0  0  0  0  0  0  0  0
    7.9825   -0.0000    0.0000 Cl  0  0  0  0  0  0  0  0  0  0  0  0
    7.9825   -2.3100    0.0000 C   0  0  0  0  0  0  0  0  0  0  0  0
    0.0000   -2.3100    0.0000 Cl  0  0  0  0  0  0  0  0  0  0  0  0
    9.3144   -2.3100    0.0000 Cl  0  0  0  0  0  0  0  0  0  0  0  0
  1  2  1  0  0  0  0 
  1  3  2  0  0  0  0 
  1  4  1  0  0  0  0 
  2  5  2  0  0  0  0 
  2  6  1  0  0  0  0 
  3  7  1  0  0  0  0 
  8  4  2  0  0  0  0 
  5  9  1  0  0  0  0 
 10  6  2  0  0  0  0 
  7 11  1  0  0  0  0 
  7 12  2  0  0  0  0 
 12  8  1  0  0  0  0 
  9 13  1  0  0  0  0 
  9 14  2  0  0  0  0 
 14 10  1  0  0  0  0 
 12 15  1  0  0  0  0 
 14 16  1  0  0  0  0 
M  END
> <Name>
3,3',4,4'-TETRACHLOROBIPHENYL

> <Source>
DSSTox2DMolFile

> <Tox>
-4.785

> <CAS>
32598-13-3

$$$$

  CDK

 17 18  0  0  0  0  0  0  0  0999 V2000
    4.1977    1.2127    0.0000 C   0  0  0  0  0  0  0  0  0  0  0  0
    5.5969    1.2127    0.0000 C   0  0  0  0  0  0  0  0  0  0  0  0
    3.4981    2.4253    0.0000 C   0  0  0  0  0  0  0  0  0  0  0  0
    3.4981    0.0000    0.0000 C   0  0  0  0  0  0  0  0  0  0  0  0
    6.2965    0.0000    0.0000 C   0  0  0  0  0  0  0  0  0  0  0  0
    6.2965    2.4253    0.0000 C   0  0  0  0  0  0  0  0  0  0  0  0
    2.0988    2.4253    0.0000 C   0  0  0  0  0  0  0  0  0  0  0  0
    2.0988    0.0000    0.0000 C   0  0  0  0  0  0  0  0  0  0  0  0
    7.6957    0.0000    0.0000 C   0  0  0  0  0  0  0  0  0  0  0  0
    7.6957    2.4253    0.0000 C   0  0  0  0  0  0  0  0  0  0  0  0
    5.5969    3.6380    0.0000 Cl  0  0  0  0  0  0  0  0  0  0  0  0
    1.3992    1.2127    0.0000 C   0  0  0  0  0  0  0  0  0  0  0  0
    1.3992    3.6380    0.0000 Cl  0  0  0  0  0  0  0  0  0  0  0  0
    8.3953    1.2127    0.0000 C   0  0  0  0  0  0  0  0  0  0  0  0
    8.3953    3.6380    0.0000 Cl  0  0  0  0  0  0  0  0  0  0  0  0
    0.0000    1.2127    0.0000 Cl  0  0  0  0  0  0  0  0  0  0  0  0
    9.7946    1.2127    0.0000 Cl  0  0  0  0  0  0  0  0  0  0  0  0
  1  2  1  0  0  0  0 
  1  3  2  0  0  0  0 
  1  4  1  0  0  0  0 
  2  5  2  0  0  0  0 
  2  6  1  0  0  0  0 
  3  7  1  0  0  0  0 
  8  4  2  0  0  0  0 
  5  9  1  0  0  0  0 
 10  6  2  0  0  0  0 
  6 11  1  0  0  0  0 
  7 12  2  0  0  0  0 
  7 13  1  0  0  0  0 
 12  8  1  0  0  0  0 
  9 14  2  0  0  0  0 
 14 10  1  0  0  0  0 
 10 15  1  0  0  0  0 
 12 16  1  0  0  0  0 
 14 17  1  0  0  0  0 
M  END
> <Name>
2,3,3',4,4'-PENTACHLORO-1,1'-BIPHENYL

> <Source>
IndexNet2DMolFile

> <Tox>
-5.185

> <CAS>
32598-14-4

$$$$

  CDK

 22 23  0  0  0  0  0  0  0  0999 V2000
    4.5990   -2.7069    0.0000 N   0  0  0  0  0  0  0  0  0  0  0  0
    5.7729   -2.0302    0.0000 C   0  0  0  0  0  0  0  0  0  0  0  0
    3.4803   -2.0302    0.0000 C   0  0  0  0  0  0  0  0  0  0  0  0
    6.9192   -2.7069    0.0000 N   0  0  0  0  0  0  0  0  0  0  0  0
    3.4803   -0.7043    0.0000 C   0  0  0  0  0  0  0  0  0  0  0  0
    2.3202   -2.7069    0.0000 C   0  0  0  0  0  0  0  0  0  0  0  0
    8.0517   -2.0302    0.0000 C   0  0  0  0  0  0  0  0  0  0  0  0
    6.9192   -4.0327    0.0000 C   0  0  0  0  0  0  0  0  0  0  0  0
    2.3202   -0.0552    0.0000 C   0  0  0  0  0  0  0  0  0  0  0  0
    4.5990   -0.0414    0.0000 C   0  0  0  0  0  0  0  0  0  0  0  0
    1.1601   -2.0302    0.0000 C   0  0  0  0  0  0  0  0  0  0  0  0
    9.2118   -2.6931    0.0000 N   0  0  0  0  0  0  0  0  0  0  0  0
    1.1601   -0.7043    0.0000 C   0  0  0  0  0  0  0  0  0  0  0  0
   10.3304   -2.0164    0.0000 C   0  0  0  0  0  0  0  0  0  0  0  0
    0.0000   -0.0414    0.0000 C   0  0  0  0  0  0  0  0  0  0  0  0
   10.3304   -0.6905    0.0000 C   0  0  0  0  0  0  0  0  0  0  0  0
   11.4905   -2.6793    0.0000 C   0  0  0  0  0  0  0  0  0  0  0  0
   11.4905   -0.0138    0.0000 C   0  0  0  0  0  0  0  0  0  0  0  0
    9.2118   -0.0000    0.0000 C   0  0  0  0  0  0  0  0  0  0  0  0
   12.6506   -2.0164    0.0000 C   0  0  0  0  0  0  0  0  0  0  0  0
   12.6506   -0.6905    0.0000 C   0  0  0  0  0  0  0  0  0  0  0  0
   13.8107   -0.0000    0.0000 C   0  0  0  0  0  0  0  0  0  0  0  0
  1  2  2  0  0  0  0 
  1  3  1  0  0  0  0 
  2  4  1  0  0  0  0 
  3  5  2  0  0  0  0 
  3  6  1  0  0  0  0 
  7  4  1  0  0  0  0 
  4  8  1  0  0  0  0 
  5  9  1  0  0  0  0 
  5 10  1  0  0  0  0 
  6 11  2  0  0  0  0 
 12  7  2  0  0  0  0 
  9 13  2  0  0  0  0 
 13 11  1  0  0  0  0 
 12 14  1  0  0  0  0 
 13 15  1  0  0  0  0 
 14 16  2  0  0  0  0 
 14 17  1  0  0  0  0 
 16 18  1  0  0  0  0 
 16 19  1  0  0  0  0 
 17 20  2  0  0  0  0 
 18 21  2  0  0  0  0 
 21 20  1  0  0  0  0 
 21 22  1  0  0  0  0 
M  END
> <Name>
AMITRAZ

> <Source>
DSSTox2DMolFile

> <Tox>
-5.699

> <CAS>
33089-61-1

$$$$

  CDK

 19 21  0  0  0  0  0  0  0  0999 V2000
    0.7109    0.8272    0.0000 C   0  0  0  0  0  0  0  0  0  0  0  0
    1.1096    1.5499    0.0000 C   0  0  0  0  0  0  0  0  0  0  0  0
    1.5631    1.2559    0.0000 C   0  0  0  0  0  0  0  0  0  0  0  0
    0.0000    0.1429    0.0000 Cl  0  0  0  0  0  0  0  0  0  0  0  0
    1.8123    2.0432    0.0000 C   0  0  0  0  0  0  0  0  0  0  0  0
    0.4954    2.1011    0.0000 Cl  0  0  0  0  0  0  0  0  0  0  0  0
    2.3604    0.8522    0.0000 C   0  0  0  0  0  0  0  0  0  0  0  0
    0.9700    0.2392    0.0000 Cl  0  0  0  0  0  0  0  0  0  0  0  0
    1.6379    2.9403    0.0000 C   0  0  0  0  0  0  0  0  0  0  0  0
    2.6865    1.5342    0.0000 C   0  0  0  0  0  0  0  0  0  0  0  0
    2.6994    2.7809    0.0000 Cl  0  0  0  0  0  0  0  0  0  0  0  0
    2.9436    0.8858    0.0000 C   0  0  0  0  0  0  0  0  0  0  0  0
    1.8921    3.8971    0.0000 Cl  0  0  0  0  0  0  0  0  0  0  0  0
    0.9352    3.6430    0.0000 Cl  0  0  0  0  0  0  0  0  0  0  0  0
    3.3926    1.5438    0.0000 C   0  0  0  0  0  0  0  0  0  0  0  0
    3.2726    0.0236    0.0000 O   0  0  0  0  0  0  0  0  0  0  0  0
    3.6613    0.8826    0.0000 O   0  0  0  0  0  0  0  0  0  0  0  0
    4.8894    1.0064    0.0000 S   0  0  0  0  0  0  0  0  0  0  0  0
    5.3702    1.7231    0.0000 O   0  0  0  0  0  0  0  0  0  0  0  0
  1  2  2  0  0  0  0 
  3  1  1  0  0  0  0 
  1  4  1  0  0  0  0 
  2  5  1  0  0  0  0 
  2  6  1  0  0  0  0 
  7  3  1  0  0  0  0 
  3  8  1  0  0  0  0 
  3  9  1  0  0  0  0 
  5  9  1  0  0  0  0 
  5 10  1  0  0  0  0 
  5 11  1  0  0  0  0 
 10  7  1  0  0  0  0 
  7 12  1  1  0  0  0 
  9 13  1  0  0  0  0 
  9 14  1  0  0  0  0 
 10 15  1  1  0  0  0 
 16 12  1  0  0  0  0 
 15 17  1  0  0  0  0 
 18 16  1  0  0  0  0 
 18 17  1  0  0  0  0 
 18 19  2  0  0  0  0 
M  END
> <Name>
Endosulfan (beta)

> <Source>
NIST2DMolFile

> <Tox>
-6.222

> <CAS>
33213-65-9

$$$$

  CDK

 14 15  0  0  0  0  0  0  0  0999 V2000
    4.3537    2.9869    0.0000 C   0  0  0  0  0  0  0  0  0  0  0  0
    3.4425    3.4931    0.0000 C   0  0  0  0  0  0  0  0  0  0  0  0
    4.3537    1.9744    0.0000 C   0  0  0  0  0  0  0  0  0  0  0  0
    5.2144    3.4931    0.0000 Cl  0  0  0  0  0  0  0  0  0  0  0  0
    2.6325    2.9869    0.0000 C   0  0  0  0  0  0  0  0  0  0  0  0
    3.4425    1.5187    0.0000 C   0  0  0  0  0  0  0  0  0  0  0  0
    2.6325    1.9744    0.0000 C   0  0  0  0  0  0  0  0  0  0  0  0
    1.7719    3.4931    0.0000 Cl  0  0  0  0  0  0  0  0  0  0  0  0
    1.7719    1.5187    0.0000 C   0  0  0  0  0  0  0  0  0  0  0  0
    1.7719    0.5062    0.0000 C   0  0  0  0  0  0  0  0  0  0  0  0
    0.9112    1.9744    0.0000 C   0  0  0  0  0  0  0  0  0  0  0  0
    0.9112    0.0000    0.0000 C   0  0  0  0  0  0  0  0  0  0  0  0
    0.0000    1.5187    0.0000 C   0  0  0  0  0  0  0  0  0  0  0  0
    0.0000    0.5062    0.0000 C   0  0  0  0  0  0  0  0  0  0  0  0
  2  1  2  0  0  0  0 
  1  3  1  0  0  0  0 
  1  4  1  0  0  0  0 
  5  2  1  0  0  0  0 
  3  6  2  0  0  0  0 
  7  5  2  0  0  0  0 
  5  8  1  0  0  0  0 
  6  7  1  0  0  0  0 
  7  9  1  0  0  0  0 
  9 10  2  0  0  0  0 
 11  9  1  0  0  0  0 
 10 12  1  0  0  0  0 
 13 11  2  0  0  0  0 
 12 14  2  0  0  0  0 
 14 13  1  0  0  0  0 
M  END
> <Name>
2,4-DICHLOROBIPHENYL

> <Source>
NIST2DMolFile

> <Tox>
-2.860

> <CAS>
33284-50-3

$$$$

  CDK

 16 17  0  0  0  0  0  0  0  0999 V2000
    4.2443    2.4253    0.0000 C   0  0  0  0  0  0  0  0  0  0  0  0
    5.6435    2.4253    0.0000 C   0  0  0  0  0  0  0  0  0  0  0  0
    3.5447    3.6380    0.0000 C   0  0  0  0  0  0  0  0  0  0  0  0
    3.5447    1.2127    0.0000 C   0  0  0  0  0  0  0  0  0  0  0  0
    6.3431    1.2127    0.0000 C   0  0  0  0  0  0  0  0  0  0  0  0
    6.3431    3.6380    0.0000 C   0  0  0  0  0  0  0  0  0  0  0  0
    2.0988    3.6380    0.0000 C   0  0  0  0  0  0  0  0  0  0  0  0
    4.2443    4.8506    0.0000 Cl  0  0  0  0  0  0  0  0  0  0  0  0
    2.0988    1.2127    0.0000 C   0  0  0  0  0  0  0  0  0  0  0  0
    7.7424    1.2127    0.0000 C   0  0  0  0  0  0  0  0  0  0  0  0
    7.7424    3.6380    0.0000 C   0  0  0  0  0  0  0  0  0  0  0  0
    1.3992    2.4253    0.0000 C   0  0  0  0  0  0  0  0  0  0  0  0
    1.3992    4.8506    0.0000 Cl  0  0  0  0  0  0  0  0  0  0  0  0
    1.3992    0.0000    0.0000 Cl  0  0  0  0  0  0  0  0  0  0  0  0
    8.4420    2.4253    0.0000 C   0  0  0  0  0  0  0  0  0  0  0  0
    0.0000    2.4253    0.0000 Cl  0  0  0  0  0  0  0  0  0  0  0  0
  1  2  1  0  0  0  0 
  1  3  2  0  0  0  0 
  1  4  1  0  0  0  0 
  2  5  2  0  0  0  0 
  2  6  1  0  0  0  0 
  3  7  1  0  0  0  0 
  3  8  1  0  0  0  0 
  9  4  2  0  0  0  0 
  5 10  1  0  0  0  0 
 11  6  2  0  0  0  0 
  7 12  2  0  0  0  0 
  7 13  1  0  0  0  0 
 12  9  1  0  0  0  0 
  9 14  1  0  0  0  0 
 10 15  2  0  0  0  0 
 15 11  1  0  0  0  0 
 12 16  1  0  0  0  0 
M  END
> <Name>
2,3,4,5-PCB

> <Source>
IndexNet2DMolFile

> <Tox>
-4.426

> <CAS>
33284-53-6

$$$$

  CDK

 21 21  0  0  0  0  0  0  0  0999 V2000
    4.5930   -4.3827    0.0000 C   0  0  0  0  0  0  0  0  0  0  0  0
    4.5930   -3.0452    0.0000 C   0  0  0  0  0  0  0  0  0  0  0  0
    5.7203   -5.0473    0.0000 N   0  0  0  0  0  0  0  0  0  0  0  0
    3.4322   -5.0473    0.0000 C   0  0  0  0  0  0  0  0  0  0  0  0
    3.4322   -2.3891    0.0000 C   0  0  0  0  0  0  0  0  0  0  0  0
    6.0904   -2.0189    0.0000 N   0  0  0  0  0  0  0  0  0  0  0  0
    5.7203   -6.3848    0.0000 O   0  0  0  0  0  0  0  0  0  0  0  0
    6.8980   -4.3827    0.0000 O   0  0  0  0  0  0  0  0  0  0  0  0
    2.3218   -4.3827    0.0000 C   0  0  0  0  0  0  0  0  0  0  0  0
    3.4322   -1.5310    0.0000 N   0  0  0  0  0  0  0  0  0  0  0  0
    2.3218   -3.0452    0.0000 C   0  0  0  0  0  0  0  0  0  0  0  0
    6.0904   -0.6814    0.0000 C   0  0  0  0  0  0  0  0  0  0  0  0
    1.1777   -5.0810    0.0000 C   0  0  0  0  0  0  0  0  0  0  0  0
    4.5426   -0.8244    0.0000 O   0  0  0  0  0  0  0  0  0  0  0  0
    2.3218   -0.8917    0.0000 O   0  0  0  0  0  0  0  0  0  0  0  0
    7.2345   -0.0000    0.0000 C   0  0  0  0  0  0  0  0  0  0  0  0
    4.9295   -0.0168    0.0000 C   0  0  0  0  0  0  0  0  0  0  0  0
    0.0000   -5.8044    0.0000 C   0  0  0  0  0  0  0  0  0  0  0  0
    0.4711   -3.9537    0.0000 C   0  0  0  0  0  0  0  0  0  0  0  0
    1.8339   -6.2250    0.0000 C   0  0  0  0  0  0  0  0  0  0  0  0
    8.4122   -0.6646    0.0000 C   0  0  0  0  0  0  0  0  0  0  0  0
  1  2  2  0  0  0  0 
  1  3  1  0  0  0  0 
  1  4  1  0  0  0  0 
  5  2  1  0  0  0  0 
  2  6  1  0  0  0  0 
  3  7  1  0  0  0  0 
  3  8  2  0  0  0  0 
  4  9  2  0  0  0  0 
  5 10  1  0  0  0  0 
  5 11  2  0  0  0  0 
  6 12  1  0  0  0  0 
 11  9  1  0  0  0  0 
  9 13  1  0  0  0  0 
 10 14  1  0  0  0  0 
 10 15  2  0  0  0  0 
 12 16  1  0  0  0  0 
 12 17  1  0  0  0  0 
 13 18  1  0  0  0  0 
 13 19  1  0  0  0  0 
 13 20  1  0  0  0  0 
 16 21  1  0  0  0  0 
M  CHG  1   3   1
M  CHG  1   7  -1
M  CHG  1  10   1
M  CHG  1  14  -1
M  END
> <Name>
BUTRALIN

> <Source>
DSSTox2DMolFile

> <Tox>
-4.896

> <CAS>
33629-47-9

$$$$

  CDK

 16 16  0  0  0  0  0  0  0  0999 V2000
   -0.0530    1.6613    0.1094 N   0  0  0  0  0  0  0  0  0  0  0  0
   -0.7566    0.4683    0.0948 C   0  0  0  0  0  0  0  0  0  0  0  0
    1.2997    1.5541   -0.0474 C   0  0  0  0  0  0  0  0  0  0  0  0
   -0.1520   -0.7491   -0.0950 N   0  0  0  0  0  0  0  0  0  0  0  0
   -2.1167    0.5823    0.3809 N   0  0  0  0  0  0  0  0  0  0  0  0
    1.9865    0.3892   -0.2346 N   0  0  0  0  0  0  0  0  0  0  0  0
    2.1315    2.6165   -0.0381 O   0  0  0  0  0  0  0  0  0  0  0  0
    1.2153   -0.7508   -0.2683 C   0  0  0  0  0  0  0  0  0  0  0  0
   -3.1558   -0.4535    0.0416 C   0  0  0  0  0  0  0  0  0  0  0  0
    1.5657    3.8995    0.1486 C   0  0  0  0  0  0  0  0  0  0  0  0
    1.7956   -1.9849   -0.5857 N   0  0  0  0  0  0  0  0  0  0  0  0
   -4.5300    0.1642    0.3480 C   0  0  0  0  0  0  0  0  0  0  0  0
   -3.1162   -0.8442   -1.4386 C   0  0  0  0  0  0  0  0  0  0  0  0
   -2.9789   -1.6976    0.9157 C   0  0  0  0  0  0  0  0  0  0  0  0
    3.2451   -2.2204   -0.4038 C   0  0  0  0  0  0  0  0  0  0  0  0
    3.6104   -2.7042    0.9869 C   0  0  0  0  0  0  0  0  0  0  0  0
  1  2  1  0  0  0  0 
  1  3  2  0  0  0  0 
  2  4  2  0  0  0  0 
  2  5  1  0  0  0  0 
  6  3  1  0  0  0  0 
  3  7  1  0  0  0  0 
  4  8  1  0  0  0  0 
  5  9  1  0  0  0  0 
  8  6  2  0  0  0  0 
  7 10  1  0  0  0  0 
  8 11  1  0  0  0  0 
  9 12  1  0  0  0  0 
  9 13  1  0  0  0  0 
  9 14  1  0  0  0  0 
 11 15  1  0  0  0  0 
 15 16  1  0  0  0  0 
M  END
> <Name>
TERBUMETON

> <Source>
DougDB3DMolFile

> <Tox>
-5.699

> <CAS>
33693-04-8

$$$$

  CDK

 22 22  0  0  0  0  0  0  0  0999 V2000
    4.6411   -5.2686    0.0000 C   0  0  0  0  0  0  0  0  0  0  0  0
    4.6411   -3.9491    0.0000 C   0  0  0  0  0  0  0  0  0  0  0  0
    5.7760   -5.9513    0.0000 N   0  0  0  0  0  0  0  0  0  0  0  0
    3.4970   -5.9513    0.0000 C   0  0  0  0  0  0  0  0  0  0  0  0
    3.4693   -3.2755    0.0000 C   0  0  0  0  0  0  0  0  0  0  0  0
    5.7760   -3.3032    0.0000 N   0  0  0  0  0  0  0  0  0  0  0  0
    5.7760   -7.2708    0.0000 O   0  0  0  0  0  0  0  0  0  0  0  0
    6.9478   -5.2686    0.0000 O   0  0  0  0  0  0  0  0  0  0  0  0
    2.3344   -5.2686    0.0000 C   0  0  0  0  0  0  0  0  0  0  0  0
    3.4693   -1.9469    0.0000 N   0  0  0  0  0  0  0  0  0  0  0  0
    2.3344   -3.9491    0.0000 C   0  0  0  0  0  0  0  0  0  0  0  0
    6.9478   -3.9491    0.0000 C   0  0  0  0  0  0  0  0  0  0  0  0
    5.7760   -1.9746    0.0000 C   0  0  0  0  0  0  0  0  0  0  0  0
    1.1626   -5.9513    0.0000 C   0  0  0  0  0  0  0  0  0  0  0  0
    4.6411   -1.3010    0.0000 O   0  0  0  0  0  0  0  0  0  0  0  0
    2.3344   -1.2733    0.0000 O   0  0  0  0  0  0  0  0  0  0  0  0
    8.0828   -3.3032    0.0000 C   0  0  0  0  0  0  0  0  0  0  0  0
    6.9478   -1.3010    0.0000 C   0  0  0  0  0  0  0  0  0  0  0  0
    1.1626   -7.2708    0.0000 C   0  0  0  0  0  0  0  0  0  0  0  0
    0.0000   -5.2686    0.0000 C   0  0  0  0  0  0  0  0  0  0  0  0
    9.2269   -3.9768    0.0000 C   0  0  0  0  0  0  0  0  0  0  0  0
    6.9478   -0.0000    0.0000 C   0  0  0  0  0  0  0  0  0  0  0  0
  1  2  2  0  0  0  0 
  1  3  1  0  0  0  0 
  1  4  1  0  0  0  0 
  5  2  1  0  0  0  0 
  2  6  1  0  0  0  0 
  3  7  1  0  0  0  0 
  3  8  2  0  0  0  0 
  4  9  2  0  0  0  0 
  5 10  1  0  0  0  0 
  5 11  2  0  0  0  0 
  6 12  1  0  0  0  0 
  6 13  1  0  0  0  0 
 11  9  1  0  0  0  0 
  9 14  1  0  0  0  0 
 10 15  1  0  0  0  0 
 10 16  2  0  0  0  0 
 12 17  1  0  0  0  0 
 13 18  1  0  0  0  0 
 14 19  1  0  0  0  0 
 14 20  1  0  0  0  0 
 17 21  1  0  0  0  0 
 18 22  1  0  0  0  0 
M  CHG  1   3   1
M  CHG  1   7  -1
M  CHG  1  10   1
M  CHG  1  15  -1
M  END
> <Name>
ISOPROPALIN

> <Source>
DSSTox2DMolFile

> <Tox>
-4.523

> <CAS>
33820-53-0

$$$$

  CDK

 16 18  0  0  0  0  0  0  0  0999 V2000
    9.2093   -2.6615    0.0000 Cl  0  0  0  0  0  0  0  0  0  0  0  0
    8.0581   -1.9984    0.0000 C   0  0  0  0  0  0  0  0  0  0  0  0
    6.9070   -2.6615    0.0000 C   0  0  0  0  0  0  0  0  0  0  0  0
    8.0581   -0.6631    0.0000 C   0  0  0  0  0  0  0  0  0  0  0  0
    5.7558   -1.9984    0.0000 C   0  0  0  0  0  0  0  0  0  0  0  0
    6.9070   -0.0000    0.0000 C   0  0  0  0  0  0  0  0  0  0  0  0
    5.7558   -0.6631    0.0000 C   0  0  0  0  0  0  0  0  0  0  0  0
    4.6047   -2.6615    0.0000 O   0  0  0  0  0  0  0  0  0  0  0  0
    4.6047   -0.0000    0.0000 O   0  0  0  0  0  0  0  0  0  0  0  0
    3.4535   -1.9984    0.0000 C   0  0  0  0  0  0  0  0  0  0  0  0
    3.4535   -0.6631    0.0000 C   0  0  0  0  0  0  0  0  0  0  0  0
    2.3023   -2.6615    0.0000 C   0  0  0  0  0  0  0  0  0  0  0  0
    2.3023   -0.0000    0.0000 C   0  0  0  0  0  0  0  0  0  0  0  0
    1.1512   -1.9984    0.0000 C   0  0  0  0  0  0  0  0  0  0  0  0
    1.1512   -0.6631    0.0000 C   0  0  0  0  0  0  0  0  0  0  0  0
    0.0000   -0.0000    0.0000 Cl  0  0  0  0  0  0  0  0  0  0  0  0
  1  2  1  0  0  0  0 
  2  3  2  0  0  0  0 
  2  4  1  0  0  0  0 
  3  5  1  0  0  0  0 
  6  4  2  0  0  0  0 
  5  7  2  0  0  0  0 
  5  8  1  0  0  0  0 
  7  6  1  0  0  0  0 
  7  9  1  0  0  0  0 
 10  8  1  0  0  0  0 
  9 11  1  0  0  0  0 
 11 10  2  0  0  0  0 
 10 12  1  0  0  0  0 
 11 13  1  0  0  0  0 
 12 14  2  0  0  0  0 
 15 13  2  0  0  0  0 
 14 15  1  0  0  0  0 
 15 16  1  0  0  0  0 
M  END
> <Name>
2,7-DICHLORODIBENZO-P-DIOXIN

> <Source>
DSSTox2DMolFile

> <Tox>
-6.046

> <CAS>
33857-26-0

$$$$

  CDK

 17 19  0  0  0  0  0  0  0  0999 V2000
   -4.6365   -1.8240   -0.0003 Cl  0  0  0  0  0  0  0  0  0  0  0  0
   -3.2335   -0.8135    0.0005 C   0  0  0  0  0  0  0  0  0  0  0  0
   -1.9849   -1.4359    0.0001 C   0  0  0  0  0  0  0  0  0  0  0  0
   -3.3222    0.5798    0.0008 C   0  0  0  0  0  0  0  0  0  0  0  0
   -0.8267   -0.6592    0.0000 C   0  0  0  0  0  0  0  0  0  0  0  0
   -4.8423    1.4039   -0.0013 Cl  0  0  0  0  0  0  0  0  0  0  0  0
   -2.1625    1.3554    0.0007 C   0  0  0  0  0  0  0  0  0  0  0  0
    0.3789   -1.3139   -0.0003 O   0  0  0  0  0  0  0  0  0  0  0  0
   -0.9153    0.7319    0.0002 C   0  0  0  0  0  0  0  0  0  0  0  0
    1.4919   -0.5118   -0.0001 C   0  0  0  0  0  0  0  0  0  0  0  0
    0.1976    1.5341    0.0001 O   0  0  0  0  0  0  0  0  0  0  0  0
    1.4033    0.8796   -0.0001 C   0  0  0  0  0  0  0  0  0  0  0  0
    2.7392   -1.1352   -0.0002 C   0  0  0  0  0  0  0  0  0  0  0  0
    2.5616    1.6560   -0.0001 C   0  0  0  0  0  0  0  0  0  0  0  0
    3.8989   -0.3595   -0.0002 C   0  0  0  0  0  0  0  0  0  0  0  0
    3.8102    1.0337   -0.0002 C   0  0  0  0  0  0  0  0  0  0  0  0
    5.4424   -1.1214    0.0002 Cl  0  0  0  0  0  0  0  0  0  0  0  0
  1  2  1  0  0  0  0 
  3  2  1  0  0  0  0 
  2  4  2  0  0  0  0 
  5  3  2  0  0  0  0 
  6  4  1  0  0  0  0 
  7  4  1  0  0  0  0 
  8  5  1  0  0  0  0 
  5  9  1  0  0  0  0 
  9  7  2  0  0  0  0 
  8 10  1  0  0  0  0 
 11  9  1  0  0  0  0 
 10 12  2  0  0  0  0 
 10 13  1  0  0  0  0 
 11 12  1  0  0  0  0 
 12 14  1  0  0  0  0 
 13 15  2  0  0  0  0 
 14 16  2  0  0  0  0 
 17 15  1  0  0  0  0 
 15 16  1  0  0  0  0 
M  END
> <Name>
2,3,7-TRICHLORODIBENZO-P-DIOXIN

> <Source>
Chemidplus3DMolFile

> <Tox>
-7.046

> <CAS>
33857-28-2

$$$$

  CDK

 15 15  0  0  0  0  0  0  0  0999 V2000
    0.9572    0.0000    0.0000 C   0  0  0  0  0  0  0  0  0  0  0  0
    0.9572    0.9572    0.0000 C   0  0  0  0  0  0  0  0  0  0  0  0
    0.0000    1.4106    0.0000 C   0  0  0  0  0  0  0  0  0  0  0  0
    1.8640    1.4106    0.0000 C   0  0  0  0  0  0  0  0  0  0  0  0
    2.8212    0.9572    0.0000 C   0  0  0  0  0  0  0  0  0  0  0  0
    1.8640    2.3174    0.0000 C   0  0  0  0  0  0  0  0  0  0  0  0
    3.7281    1.4106    0.0000 C   0  0  0  0  0  0  0  0  0  0  0  0
    2.8212    2.7709    0.0000 C   0  0  0  0  0  0  0  0  0  0  0  0
    3.7281    2.3174    0.0000 C   0  0  0  0  0  0  0  0  0  0  0  0
    4.6349    2.7709    0.0000 N   0  0  0  0  0  0  0  0  0  0  0  0
    5.5921    2.3174    0.0000 C   0  0  0  0  0  0  0  0  0  0  0  0
    5.5921    1.4106    0.0000 O   0  0  0  0  0  0  0  0  0  0  0  0
    6.4989    2.7709    0.0000 N   0  0  0  0  0  0  0  0  0  0  0  0
    7.4561    2.3174    0.0000 C   0  0  0  0  0  0  0  0  0  0  0  0
    6.4989    3.7281    0.0000 C   0  0  0  0  0  0  0  0  0  0  0  0
  1  2  1  0  0  0  0 
  2  3  1  0  0  0  0 
  2  4  1  0  0  0  0 
  5  4  2  0  0  0  0 
  4  6  1  0  0  0  0 
  7  5  1  0  0  0  0 
  6  8  2  0  0  0  0 
  9  7  2  0  0  0  0 
  8  9  1  0  0  0  0 
  9 10  1  0  0  0  0 
 11 10  1  0  0  0  0 
 12 11  2  0  0  0  0 
 11 13  1  0  0  0  0 
 13 14  1  0  0  0  0 
 13 15  1  0  0  0  0 
M  END
> <Name>
ISOPROTURON

> <Source>
NIST2DMolFile

> <Tox>
-7.607

> <CAS>
34123-59-6

$$$$

  CDK

 12 11  0  0  0  0  0  0  0  0999 V2000
   -1.2095   -1.8680   -0.3917 Cl  0  0  0  0  0  0  0  0  0  0  0  0
   -1.1695   -0.1953    0.2516 C   0  0  0  0  0  0  0  0  0  0  0  0
    0.1090    0.5309   -0.1956 C   0  0  0  0  0  0  0  0  0  0  0  0
   -2.4553    0.5557   -0.1338 C   0  0  0  0  0  0  0  0  0  0  0  0
    1.3910   -0.2157    0.1964 C   0  0  0  0  0  0  0  0  0  0  0  0
   -3.7653   -0.1275    0.2768 C   0  0  0  0  0  0  0  0  0  0  0  0
    2.6726    0.5346   -0.1858 C   0  0  0  0  0  0  0  0  0  0  0  0
   -4.9772    0.6646   -0.2183 C   0  0  0  0  0  0  0  0  0  0  0  0
    3.9512   -0.2201    0.1881 C   0  0  0  0  0  0  0  0  0  0  0  0
   -6.2820    0.0121    0.2098 C   0  0  0  0  0  0  0  0  0  0  0  0
    5.2301    0.5289   -0.1959 C   0  0  0  0  0  0  0  0  0  0  0  0
    6.5050   -0.2002    0.1985 C   0  0  0  0  0  0  0  0  0  0  0  0
  1  2  1  0  0  0  0 
  3  2  1  0  0  0  0 
  2  4  1  0  0  0  0 
  3  5  1  0  0  0  0 
  4  6  1  0  0  0  0 
  5  7  1  0  0  0  0 
  6  8  1  0  0  0  0 
  7  9  1  0  0  0  0 
  8 10  1  0  0  0  0 
  9 11  1  0  0  0  0 
 11 12  1  0  0  0  0 
M  END
> <Name>
CHLOROUNDECANE

> <Source>
Chemidplus3DMolFile

> <Tox>
-1.514

> <CAS>
34214-82-9

$$$$

  CDK

 14 13  0  0  0  0  0  0  0  0999 V2000
   -2.7424    2.1245    1.3074 Cl  0  0  0  0  0  0  0  0  0  0  0  0
   -2.5845    1.2630   -0.2565 C   0  0  0  0  0  0  0  0  0  0  0  0
   -1.1465    1.3826   -0.7890 C   0  0  0  0  0  0  0  0  0  0  0  0
   -3.0592   -0.1922   -0.1289 C   0  0  0  0  0  0  0  0  0  0  0  0
   -0.0705    0.6970    0.0616 C   0  0  0  0  0  0  0  0  0  0  0  0
   -4.5867   -0.3257   -0.0871 C   0  0  0  0  0  0  0  0  0  0  0  0
    1.3076    0.8149   -0.5958 C   0  0  0  0  0  0  0  0  0  0  0  0
   -5.0098   -1.7882    0.0586 C   0  0  0  0  0  0  0  0  0  0  0  0
    2.3789    0.0935    0.2240 C   0  0  0  0  0  0  0  0  0  0  0  0
   -6.5234   -1.9332    0.0548 C   0  0  0  0  0  0  0  0  0  0  0  0
    3.7499    0.1832   -0.4504 C   0  0  0  0  0  0  0  0  0  0  0  0
    4.8132   -0.5671    0.3550 C   0  0  0  0  0  0  0  0  0  0  0  0
    6.1993   -0.5345   -0.2923 C   0  0  0  0  0  0  0  0  0  0  0  0
    7.2742   -1.2178    0.5386 C   0  0  0  0  0  0  0  0  0  0  0  0
  1  2  1  0  0  0  0 
  3  2  1  0  0  0  0 
  2  4  1  0  0  0  0 
  5  3  1  0  0  0  0 
  4  6  1  0  0  0  0 
  5  7  1  0  0  0  0 
  6  8  1  0  0  0  0 
  7  9  1  0  0  0  0 
  8 10  1  0  0  0  0 
  9 11  1  0  0  0  0 
 11 12  1  0  0  0  0 
 12 13  1  0  0  0  0 
 13 14  1  0  0  0  0 
M  END
> <Name>
CHLOROTRIDECANE

> <Source>
Chemidplus3DMolFile

> <Tox>
-2.504

> <CAS>
34214-84-1

$$$$

  CDK

 16 15  0  0  0  0  0  0  0  0999 V2000
    6.0406   -1.7058    0.5437 Cl  0  0  0  0  0  0  0  0  0  0  0  0
    5.9760   -0.0940   -0.2377 C   0  0  0  0  0  0  0  0  0  0  0  0
    4.6656    0.6287    0.1090 C   0  0  0  0  0  0  0  0  0  0  0  0
    7.2253    0.7243    0.1250 C   0  0  0  0  0  0  0  0  0  0  0  0
    3.4159   -0.1899   -0.2382 C   0  0  0  0  0  0  0  0  0  0  0  0
    8.5595    0.0567   -0.1846 C   0  0  0  0  0  0  0  0  0  0  0  0
    2.1379    0.5636    0.1420 C   0  0  0  0  0  0  0  0  0  0  0  0
    0.8897   -0.2324   -0.2455 C   0  0  0  0  0  0  0  0  0  0  0  0
   -0.4194    0.4621    0.1407 C   0  0  0  0  0  0  0  0  0  0  0  0
   -1.6688   -0.2985   -0.3123 C   0  0  0  0  0  0  0  0  0  0  0  0
   -2.9441    0.4352    0.1118 C   0  0  0  0  0  0  0  0  0  0  0  0
   -4.2314   -0.2897   -0.2956 C   0  0  0  0  0  0  0  0  0  0  0  0
   -5.5024    0.4070    0.1972 C   0  0  0  0  0  0  0  0  0  0  0  0
   -6.7856   -0.3556   -0.1495 C   0  0  0  0  0  0  0  0  0  0  0  0
   -8.0563    0.3222    0.3648 C   0  0  0  0  0  0  0  0  0  0  0  0
   -9.3024   -0.4341   -0.0708 C   0  0  0  0  0  0  0  0  0  0  0  0
  1  2  1  0  0  0  0 
  3  2  1  0  0  0  0 
  2  4  1  0  0  0  0 
  5  3  1  0  0  0  0 
  4  6  1  0  0  0  0 
  7  5  1  0  0  0  0 
  8  7  1  0  0  0  0 
  9  8  1  0  0  0  0 
  9 10  1  0  0  0  0 
 10 11  1  0  0  0  0 
 11 12  1  0  0  0  0 
 12 13  1  0  0  0  0 
 13 14  1  0  0  0  0 
 14 15  1  0  0  0  0 
 15 16  1  0  0  0  0 
M  END
> <Name>
CHLOROPENTADECANE

> <Source>
Chemidplus3DMolFile

> <Tox>
-3.455

> <CAS>
34214-86-3

$$$$

  CDK

 20 22  0  0  0  0  0  0  0  0999 V2000
    3.6380    3.4981    0.0000 C   0  0  0  0  0  0  0  0  0  0  0  0
    3.6380    2.0988    0.0000 C   0  0  0  0  0  0  0  0  0  0  0  0
    4.8506    4.1977    0.0000 O   0  0  0  0  0  0  0  0  0  0  0  0
    2.4253    4.1977    0.0000 C   0  0  0  0  0  0  0  0  0  0  0  0
    4.8506    1.3992    0.0000 O   0  0  0  0  0  0  0  0  0  0  0  0
    2.4253    1.3992    0.0000 C   0  0  0  0  0  0  0  0  0  0  0  0
    6.0633    3.4981    0.0000 C   0  0  0  0  0  0  0  0  0  0  0  0
    1.2127    3.4981    0.0000 C   0  0  0  0  0  0  0  0  0  0  0  0
    6.0633    2.0988    0.0000 C   0  0  0  0  0  0  0  0  0  0  0  0
    1.2127    2.0988    0.0000 C   0  0  0  0  0  0  0  0  0  0  0  0
    2.4253    0.0000    0.0000 Cl  0  0  0  0  0  0  0  0  0  0  0  0
    7.2760    4.1977    0.0000 C   0  0  0  0  0  0  0  0  0  0  0  0
    7.2760    1.3992    0.0000 C   0  0  0  0  0  0  0  0  0  0  0  0
    0.0000    1.3992    0.0000 Cl  0  0  0  0  0  0  0  0  0  0  0  0
    8.4886    3.4981    0.0000 C   0  0  0  0  0  0  0  0  0  0  0  0
    7.2760    5.5969    0.0000 Cl  0  0  0  0  0  0  0  0  0  0  0  0
    8.4886    2.0988    0.0000 C   0  0  0  0  0  0  0  0  0  0  0  0
    7.2760    0.0000    0.0000 Cl  0  0  0  0  0  0  0  0  0  0  0  0
    9.7013    4.1977    0.0000 Cl  0  0  0  0  0  0  0  0  0  0  0  0
    9.7013    1.3992    0.0000 Cl  0  0  0  0  0  0  0  0  0  0  0  0
  1  2  2  0  0  0  0 
  1  3  1  0  0  0  0 
  1  4  1  0  0  0  0 
  2  5  1  0  0  0  0 
  2  6  1  0  0  0  0 
  7  3  1  0  0  0  0 
  4  8  2  0  0  0  0 
  5  9  1  0  0  0  0 
 10  6  2  0  0  0  0 
  6 11  1  0  0  0  0 
  9  7  2  0  0  0  0 
  7 12  1  0  0  0  0 
  8 10  1  0  0  0  0 
  9 13  1  0  0  0  0 
 10 14  1  0  0  0  0 
 15 12  2  0  0  0  0 
 12 16  1  0  0  0  0 
 13 17  2  0  0  0  0 
 13 18  1  0  0  0  0 
 17 15  1  0  0  0  0 
 15 19  1  0  0  0  0 
 17 20  1  0  0  0  0 
M  END
> <Name>
HEXACHLORODIBENZO-P-DIOXIN

> <Source>
IndexNet2DMolFile

> <Tox>
-10.357

> <CAS>
34465-46-8

$$$$

  CDK

 10  9  0  0  0  0  0  0  0  0999 V2000
    6.9375   -1.3320    0.0000 C   0  0  0  0  0  0  0  0  0  0  0  0
    8.0938   -1.9888    0.0000 C   0  0  0  0  0  0  0  0  0  0  0  0
    6.9375   -0.0000    0.0000 O   0  0  0  0  0  0  0  0  0  0  0  0
    5.7813   -1.9888    0.0000 O   0  0  0  0  0  0  0  0  0  0  0  0
    9.2500   -1.3320    0.0000 C   0  0  0  0  0  0  0  0  0  0  0  0
    4.6250   -1.3320    0.0000 C   0  0  0  0  0  0  0  0  0  0  0  0
    3.4688   -1.9888    0.0000 C   0  0  0  0  0  0  0  0  0  0  0  0
    2.3125   -1.3320    0.0000 C   0  0  0  0  0  0  0  0  0  0  0  0
    1.1563   -1.9888    0.0000 O   0  0  0  0  0  0  0  0  0  0  0  0
    0.0000   -1.3320    0.0000 C   0  0  0  0  0  0  0  0  0  0  0  0
  1  2  1  0  0  0  0 
  1  3  1  0  0  0  0 
  1  4  1  0  0  0  0 
  2  5  1  0  0  0  0 
  4  6  1  0  0  0  0 
  6  7  1  0  0  0  0 
  7  8  1  0  0  0  0 
  8  9  1  0  0  0  0 
  9 10  1  0  0  0  0 
M  END
> <Name>
DIPROPYLENE GLYCOL METHYL ETHER

> <Source>
DSSTox2DMolFile

> <Tox>
-0.260

> <CAS>
34590-94-8

$$$$

  CDK

 14 15  0  0  0  0  0  0  0  0999 V2000
    2.8451    2.4253    0.0000 C   0  0  0  0  0  0  0  0  0  0  0  0
    4.2443    2.4253    0.0000 C   0  0  0  0  0  0  0  0  0  0  0  0
    2.1455    3.6380    0.0000 C   0  0  0  0  0  0  0  0  0  0  0  0
    2.1455    1.2127    0.0000 C   0  0  0  0  0  0  0  0  0  0  0  0
    4.9439    1.2127    0.0000 C   0  0  0  0  0  0  0  0  0  0  0  0
    4.9439    3.6380    0.0000 C   0  0  0  0  0  0  0  0  0  0  0  0
    0.6996    3.6380    0.0000 C   0  0  0  0  0  0  0  0  0  0  0  0
    2.8451    4.8506    0.0000 Cl  0  0  0  0  0  0  0  0  0  0  0  0
    0.6996    1.2127    0.0000 C   0  0  0  0  0  0  0  0  0  0  0  0
    6.3431    1.2127    0.0000 C   0  0  0  0  0  0  0  0  0  0  0  0
    6.3431    3.6380    0.0000 C   0  0  0  0  0  0  0  0  0  0  0  0
    0.0000    2.4253    0.0000 C   0  0  0  0  0  0  0  0  0  0  0  0
    0.0000    0.0000    0.0000 Cl  0  0  0  0  0  0  0  0  0  0  0  0
    7.0428    2.4253    0.0000 C   0  0  0  0  0  0  0  0  0  0  0  0
  1  2  1  0  0  0  0 
  1  3  2  0  0  0  0 
  1  4  1  0  0  0  0 
  2  5  2  0  0  0  0 
  2  6  1  0  0  0  0 
  3  7  1  0  0  0  0 
  3  8  1  0  0  0  0 
  9  4  2  0  0  0  0 
  5 10  1  0  0  0  0 
 11  6  2  0  0  0  0 
  7 12  2  0  0  0  0 
 12  9  1  0  0  0  0 
  9 13  1  0  0  0  0 
 10 14  2  0  0  0  0 
 14 11  1  0  0  0  0 
M  END
> <Name>
2,5-DICHLOROBIPHENYL

> <Source>
IndexNet2DMolFile

> <Tox>
-2.860

> <CAS>
34883-39-1

$$$$

  CDK

 14 15  0  0  0  0  0  0  0  0999 V2000
    5.3198   -2.3050    0.0000 C   0  0  0  0  0  0  0  0  0  0  0  0
    3.9879   -2.3050    0.0000 C   0  0  0  0  0  0  0  0  0  0  0  0
    5.9818   -1.1485    0.0000 C   0  0  0  0  0  0  0  0  0  0  0  0
    5.9818   -3.4535    0.0000 C   0  0  0  0  0  0  0  0  0  0  0  0
    3.3259   -3.4535    0.0000 C   0  0  0  0  0  0  0  0  0  0  0  0
    3.3259   -1.1485    0.0000 C   0  0  0  0  0  0  0  0  0  0  0  0
    5.3198   -0.0000    0.0000 Cl  0  0  0  0  0  0  0  0  0  0  0  0
    7.3137   -1.1485    0.0000 C   0  0  0  0  0  0  0  0  0  0  0  0
    7.3137   -3.4535    0.0000 C   0  0  0  0  0  0  0  0  0  0  0  0
    1.9939   -3.4535    0.0000 C   0  0  0  0  0  0  0  0  0  0  0  0
    1.9939   -1.1485    0.0000 C   0  0  0  0  0  0  0  0  0  0  0  0
    7.9757   -2.3050    0.0000 C   0  0  0  0  0  0  0  0  0  0  0  0
    1.3319   -2.3050    0.0000 C   0  0  0  0  0  0  0  0  0  0  0  0
    0.0000   -2.3050    0.0000 Cl  0  0  0  0  0  0  0  0  0  0  0  0
  1  2  1  0  0  0  0 
  1  3  2  0  0  0  0 
  1  4  1  0  0  0  0 
  2  5  2  0  0  0  0 
  2  6  1  0  0  0  0 
  3  7  1  0  0  0  0 
  3  8  1  0  0  0  0 
  9  4  2  0  0  0  0 
  5 10  1  0  0  0  0 
 11  6  2  0  0  0  0 
  8 12  2  0  0  0  0 
 12  9  1  0  0  0  0 
 10 13  2  0  0  0  0 
 13 11  1  0  0  0  0 
 13 14  1  0  0  0  0 
M  END
> <Name>
2,4'-DICHLOROBIPHENYL

> <Source>
DSSTox2DMolFile

> <Tox>
-2.680

> <CAS>
34883-43-7

$$$$

  CDK

 18 19  0  0  0  0  0  0  0  0999 V2000
    3.9992   -2.3119    0.0000 C   0  0  0  0  0  0  0  0  0  0  0  0
    5.3229   -2.3119    0.0000 C   0  0  0  0  0  0  0  0  0  0  0  0
    3.3373   -3.4492    0.0000 C   0  0  0  0  0  0  0  0  0  0  0  0
    3.3373   -1.1559    0.0000 C   0  0  0  0  0  0  0  0  0  0  0  0
    6.0034   -1.1559    0.0000 C   0  0  0  0  0  0  0  0  0  0  0  0
    6.0034   -3.4492    0.0000 C   0  0  0  0  0  0  0  0  0  0  0  0
    1.9856   -3.4492    0.0000 C   0  0  0  0  0  0  0  0  0  0  0  0
    2.0042   -1.1559    0.0000 C   0  0  0  0  0  0  0  0  0  0  0  0
    3.9992   -0.0000    0.0000 Cl  0  0  0  0  0  0  0  0  0  0  0  0
    7.3365   -1.1559    0.0000 C   0  0  0  0  0  0  0  0  0  0  0  0
    5.3229   -0.0000    0.0000 Cl  0  0  0  0  0  0  0  0  0  0  0  0
    7.3365   -3.4492    0.0000 C   0  0  0  0  0  0  0  0  0  0  0  0
    1.3331   -2.3119    0.0000 C   0  0  0  0  0  0  0  0  0  0  0  0
    1.3331   -4.6051    0.0000 Cl  0  0  0  0  0  0  0  0  0  0  0  0
    7.9890   -2.3119    0.0000 C   0  0  0  0  0  0  0  0  0  0  0  0
    7.9890   -4.6051    0.0000 Cl  0  0  0  0  0  0  0  0  0  0  0  0
    0.0000   -2.3119    0.0000 Cl  0  0  0  0  0  0  0  0  0  0  0  0
    9.3221   -2.3119    0.0000 Cl  0  0  0  0  0  0  0  0  0  0  0  0
  1  2  1  0  0  0  0 
  1  3  2  0  0  0  0 
  1  4  1  0  0  0  0 
  2  5  2  0  0  0  0 
  2  6  1  0  0  0  0 
  3  7  1  0  0  0  0 
  4  8  2  0  0  0  0 
  4  9  1  0  0  0  0 
  5 10  1  0  0  0  0 
  5 11  1  0  0  0  0 
  6 12  2  0  0  0  0 
  7 13  2  0  0  0  0 
  7 14  1  0  0  0  0 
  8 13  1  0  0  0  0 
 10 15  2  0  0  0  0 
 12 15  1  0  0  0  0 
 12 16  1  0  0  0  0 
 13 17  1  0  0  0  0 
 15 18  1  0  0  0  0 
M  END
> <Name>
2,4,5,2',4',5'-HEXACHLOROBIPHENYL

> <Source>
DSSTox2DMolFile

> <Tox>
-5.465

> <CAS>
35065-27-1

$$$$

  CDK

 18 19  0  0  0  0  0  0  0  0999 V2000
    1.0602    1.5650    0.0000 C   0  0  0  0  0  0  0  0  0  0  0  0
    1.5145    2.4233    0.0000 C   0  0  0  0  0  0  0  0  0  0  0  0
    1.5145    0.7068    0.0000 C   0  0  0  0  0  0  0  0  0  0  0  0
    0.0000    1.5650    0.0000 Cl  0  0  0  0  0  0  0  0  0  0  0  0
    2.5242    2.4233    0.0000 C   0  0  0  0  0  0  0  0  0  0  0  0
    2.5242    0.7068    0.0000 C   0  0  0  0  0  0  0  0  0  0  0  0
    0.8078    0.0000    0.0000 Cl  0  0  0  0  0  0  0  0  0  0  0  0
    3.0291    1.5650    0.0000 C   0  0  0  0  0  0  0  0  0  0  0  0
    3.2310    3.1300    0.0000 Cl  0  0  0  0  0  0  0  0  0  0  0  0
    3.9883    1.5650    0.0000 C   0  0  0  0  0  0  0  0  0  0  0  0
    4.4931    2.4233    0.0000 C   0  0  0  0  0  0  0  0  0  0  0  0
    4.4931    0.6563    0.0000 C   0  0  0  0  0  0  0  0  0  0  0  0
    5.5028    2.4233    0.0000 C   0  0  0  0  0  0  0  0  0  0  0  0
    3.7863    0.0000    0.0000 Cl  0  0  0  0  0  0  0  0  0  0  0  0
    5.5028    0.6563    0.0000 C   0  0  0  0  0  0  0  0  0  0  0  0
    6.0076    1.5650    0.0000 C   0  0  0  0  0  0  0  0  0  0  0  0
    6.2096    0.0000    0.0000 Cl  0  0  0  0  0  0  0  0  0  0  0  0
    7.0173    1.5650    0.0000 Cl  0  0  0  0  0  0  0  0  0  0  0  0
  1  2  2  0  0  0  0 
  3  1  1  0  0  0  0 
  1  4  1  0  0  0  0 
  2  5  1  0  0  0  0 
  6  3  2  0  0  0  0 
  3  7  1  0  0  0  0 
  5  8  2  0  0  0  0 
  5  9  1  0  0  0  0 
  8  6  1  0  0  0  0 
  8 10  1  0  0  0  0 
 10 11  2  0  0  0  0 
 12 10  1  0  0  0  0 
 11 13  1  0  0  0  0 
 12 14  1  0  0  0  0 
 15 12  2  0  0  0  0 
 13 16  2  0  0  0  0 
 16 15  1  0  0  0  0 
 15 17  1  0  0  0  0 
 16 18  1  0  0  0  0 
M  END
> <Name>
2,2',3,4,4',5'-HEXACHLOROBIPHENYL

> <Source>
NIST2DMolFile

> <Tox>
-5.420

> <CAS>
35065-28-2

$$$$

  CDK

 19 20  0  0  0  0  0  0  0  0999 V2000
    1.0602    1.5651    0.0000 C   0  0  0  0  0  0  0  0  0  0  0  0
    1.5146    2.4233    0.0000 C   0  0  0  0  0  0  0  0  0  0  0  0
    1.5146    0.7068    0.0000 C   0  0  0  0  0  0  0  0  0  0  0  0
    0.0000    1.5651    0.0000 Cl  0  0  0  0  0  0  0  0  0  0  0  0
    2.5243    2.4233    0.0000 C   0  0  0  0  0  0  0  0  0  0  0  0
    2.5243    0.7068    0.0000 C   0  0  0  0  0  0  0  0  0  0  0  0
    0.8078    0.0000    0.0000 Cl  0  0  0  0  0  0  0  0  0  0  0  0
    3.0291    1.5651    0.0000 C   0  0  0  0  0  0  0  0  0  0  0  0
    3.2311    3.1301    0.0000 Cl  0  0  0  0  0  0  0  0  0  0  0  0
    3.9884    1.5651    0.0000 C   0  0  0  0  0  0  0  0  0  0  0  0
    4.4932    2.4233    0.0000 C   0  0  0  0  0  0  0  0  0  0  0  0
    4.4932    0.6563    0.0000 C   0  0  0  0  0  0  0  0  0  0  0  0
    5.5029    2.4233    0.0000 C   0  0  0  0  0  0  0  0  0  0  0  0
    3.7864    0.0000    0.0000 Cl  0  0  0  0  0  0  0  0  0  0  0  0
    5.5029    0.6563    0.0000 C   0  0  0  0  0  0  0  0  0  0  0  0
    6.0078    1.5651    0.0000 C   0  0  0  0  0  0  0  0  0  0  0  0
    6.2097    3.1301    0.0000 Cl  0  0  0  0  0  0  0  0  0  0  0  0
    6.2097    0.0000    0.0000 Cl  0  0  0  0  0  0  0  0  0  0  0  0
    7.0175    1.5651    0.0000 Cl  0  0  0  0  0  0  0  0  0  0  0  0
  1  2  2  0  0  0  0 
  3  1  1  0  0  0  0 
  1  4  1  0  0  0  0 
  2  5  1  0  0  0  0 
  6  3  2  0  0  0  0 
  3  7  1  0  0  0  0 
  5  8  2  0  0  0  0 
  5  9  1  0  0  0  0 
  8  6  1  0  0  0  0 
  8 10  1  0  0  0  0 
 10 11  2  0  0  0  0 
 12 10  1  0  0  0  0 
 11 13  1  0  0  0  0 
 12 14  1  0  0  0  0 
 15 12  2  0  0  0  0 
 13 16  2  0  0  0  0 
 13 17  1  0  0  0  0 
 16 15  1  0  0  0  0 
 15 18  1  0  0  0  0 
 16 19  1  0  0  0  0 
M  END
> <Name>
2,2',3,4,4',5,5'-HEPTACHLOROBIPHENYL

> <Source>
NIST2DMolFile

> <Tox>
-6.010

> <CAS>
35065-29-3

$$$$

  CDK

 19 20  0  0  0  0  0  0  0  0999 V2000
    3.9926    3.4935    0.0000 Cl  0  0  0  0  0  0  0  0  0  0  0  0
    4.4917    2.5952    0.0000 C   0  0  0  0  0  0  0  0  0  0  0  0
    3.9926    1.7468    0.0000 C   0  0  0  0  0  0  0  0  0  0  0  0
    5.4898    2.5952    0.0000 C   0  0  0  0  0  0  0  0  0  0  0  0
    4.4917    0.8983    0.0000 C   0  0  0  0  0  0  0  0  0  0  0  0
    2.9945    1.7468    0.0000 C   0  0  0  0  0  0  0  0  0  0  0  0
    5.9889    3.4935    0.0000 Cl  0  0  0  0  0  0  0  0  0  0  0  0
    5.9889    1.7468    0.0000 C   0  0  0  0  0  0  0  0  0  0  0  0
    5.4898    0.8983    0.0000 C   0  0  0  0  0  0  0  0  0  0  0  0
    2.4954    0.8983    0.0000 C   0  0  0  0  0  0  0  0  0  0  0  0
    2.4954    2.5952    0.0000 C   0  0  0  0  0  0  0  0  0  0  0  0
    6.9871    1.7468    0.0000 Cl  0  0  0  0  0  0  0  0  0  0  0  0
    5.9889    0.0000    0.0000 Cl  0  0  0  0  0  0  0  0  0  0  0  0
    2.9945    0.0000    0.0000 Cl  0  0  0  0  0  0  0  0  0  0  0  0
    1.4972    0.8983    0.0000 C   0  0  0  0  0  0  0  0  0  0  0  0
    1.4972    2.5952    0.0000 C   0  0  0  0  0  0  0  0  0  0  0  0
    0.9982    0.0000    0.0000 Cl  0  0  0  0  0  0  0  0  0  0  0  0
    0.9982    1.7468    0.0000 C   0  0  0  0  0  0  0  0  0  0  0  0
    0.0000    1.7468    0.0000 Cl  0  0  0  0  0  0  0  0  0  0  0  0
  1  2  1  0  0  0  0 
  2  3  2  0  0  0  0 
  4  2  1  0  0  0  0 
  3  5  1  0  0  0  0 
  3  6  1  0  0  0  0 
  4  7  1  0  0  0  0 
  8  4  2  0  0  0  0 
  5  9  2  0  0  0  0 
 10  6  2  0  0  0  0 
  6 11  1  0  0  0  0 
  9  8  1  0  0  0  0 
  8 12  1  0  0  0  0 
  9 13  1  0  0  0  0 
 10 14  1  0  0  0  0 
 15 10  1  0  0  0  0 
 11 16  2  0  0  0  0 
 15 17  1  0  0  0  0 
 18 15  2  0  0  0  0 
 16 18  1  0  0  0  0 
 18 19  1  0  0  0  0 
M  END
> <Name>
2,2',3,3',4,4',5-HEPTACHLOROBIPHENYL

> <Source>
NIST2DMolFile

> <Tox>
-6.202

> <CAS>
35065-30-6

$$$$

  CDK

 17 17  0  0  0  0  0  0  0  0999 V2000
    4.3445    1.9975    0.0000 C   0  0  0  0  0  0  0  0  0  0  0  0
    5.1935    1.4981    0.0000 C   0  0  0  0  0  0  0  0  0  0  0  0
    3.4457    1.4981    0.0000 C   0  0  0  0  0  0  0  0  0  0  0  0
    5.1935    0.4994    0.0000 C   0  0  0  0  0  0  0  0  0  0  0  0
    3.4457    0.4994    0.0000 C   0  0  0  0  0  0  0  0  0  0  0  0
    2.5967    1.9975    0.0000 C   0  0  0  0  0  0  0  0  0  0  0  0
    4.3445    0.0000    0.0000 C   0  0  0  0  0  0  0  0  0  0  0  0
    2.5967    2.9962    0.0000 N   0  0  0  0  0  0  0  0  0  0  0  0
    3.4457    3.4956    0.0000 C   0  0  0  0  0  0  0  0  0  0  0  0
    1.7478    3.4956    0.0000 C   0  0  0  0  0  0  0  0  0  0  0  0
    3.4457    4.4944    0.0000 C   0  0  0  0  0  0  0  0  0  0  0  0
    4.3445    2.9962    0.0000 C   0  0  0  0  0  0  0  0  0  0  0  0
    0.8489    2.9962    0.0000 C   0  0  0  0  0  0  0  0  0  0  0  0
    1.7478    4.4944    0.0000 O   0  0  0  0  0  0  0  0  0  0  0  0
    0.0000    2.4969    0.0000 C   0  0  0  0  0  0  0  0  0  0  0  0
    0.8489    1.9975    0.0000 C   0  0  0  0  0  0  0  0  0  0  0  0
    0.0000    3.4956    0.0000 C   0  0  0  0  0  0  0  0  0  0  0  0
  1  2  2  0  0  0  0 
  3  1  1  0  0  0  0 
  2  4  1  0  0  0  0 
  5  3  2  0  0  0  0 
  3  6  1  0  0  0  0 
  4  7  2  0  0  0  0 
  7  5  1  0  0  0  0 
  6  8  1  0  0  0  0 
  8  9  1  0  0  0  0 
  8 10  1  0  0  0  0 
 11  9  1  0  0  0  0 
  9 12  1  0  0  0  0 
 13 10  1  0  0  0  0 
 10 14  2  0  0  0  0 
 15 13  1  0  0  0  0 
 13 16  1  0  0  0  0 
 13 17  1  0  0  0  0 
M  END
> <Name>
Tebutam

> <Source>
NIST2DMolFile

> <Tox>
-3.175

> <CAS>
35256-85-0

$$$$

  CDK

 21 22  0  0  0  0  0  0  0  0999 V2000
    3.9813   -3.4433    0.0000 C   0  0  0  0  0  0  0  0  0  0  0  0
    4.6389   -2.3075    0.0000 N   0  0  0  0  0  0  0  0  0  0  0  0
    2.6423   -3.4433    0.0000 C   0  0  0  0  0  0  0  0  0  0  0  0
    4.6509   -4.6031    0.0000 O   0  0  0  0  0  0  0  0  0  0  0  0
    5.9780   -2.3075    0.0000 C   0  0  0  0  0  0  0  0  0  0  0  0
    1.9727   -2.3075    0.0000 C   0  0  0  0  0  0  0  0  0  0  0  0
    1.9847   -4.6031    0.0000 C   0  0  0  0  0  0  0  0  0  0  0  0
    6.6356   -1.1478    0.0000 N   0  0  0  0  0  0  0  0  0  0  0  0
    6.6475   -3.4433    0.0000 O   0  0  0  0  0  0  0  0  0  0  0  0
    2.6303   -1.1239    0.0000 F   0  0  0  0  0  0  0  0  0  0  0  0
    0.6576   -2.3075    0.0000 C   0  0  0  0  0  0  0  0  0  0  0  0
    2.6542   -5.7508    0.0000 F   0  0  0  0  0  0  0  0  0  0  0  0
    0.6576   -4.6031    0.0000 C   0  0  0  0  0  0  0  0  0  0  0  0
    7.9746   -1.1478    0.0000 C   0  0  0  0  0  0  0  0  0  0  0  0
    0.0000   -3.4433    0.0000 C   0  0  0  0  0  0  0  0  0  0  0  0
    8.6322   -0.0000    0.0000 C   0  0  0  0  0  0  0  0  0  0  0  0
    8.6561   -2.3075    0.0000 C   0  0  0  0  0  0  0  0  0  0  0  0
    9.9832   -0.0000    0.0000 C   0  0  0  0  0  0  0  0  0  0  0  0
    9.9832   -2.3075    0.0000 C   0  0  0  0  0  0  0  0  0  0  0  0
   10.6408   -1.1478    0.0000 C   0  0  0  0  0  0  0  0  0  0  0  0
   11.9560   -1.1478    0.0000 Cl  0  0  0  0  0  0  0  0  0  0  0  0
  1  2  1  0  0  0  0 
  1  3  1  0  0  0  0 
  1  4  2  0  0  0  0 
  2  5  1  0  0  0  0 
  3  6  1  0  0  0  0 
  3  7  2  0  0  0  0 
  5  8  1  0  0  0  0 
  5  9  2  0  0  0  0 
  6 10  1  0  0  0  0 
  6 11  2  0  0  0  0 
  7 12  1  0  0  0  0 
  7 13  1  0  0  0  0 
  8 14  1  0  0  0  0 
 15 11  1  0  0  0  0 
 15 13  2  0  0  0  0 
 14 16  1  0  0  0  0 
 14 17  2  0  0  0  0 
 16 18  2  0  0  0  0 
 17 19  1  0  0  0  0 
 20 18  1  0  0  0  0 
 20 19  2  0  0  0  0 
 20 21  1  0  0  0  0 
M  END
> <Name>
DIFLUBENZURON

> <Source>
DSSTox2DMolFile

> <Tox>
-9.046

> <CAS>
35367-38-5

$$$$

  CDK

 18 18  0  0  0  0  0  0  0  0999 V2000
    4.5827   -3.4428    0.0000 P   0  0  0  0  0  0  0  0  0  0  0  0
    3.9149   -4.6172    0.0000 S   0  0  0  0  0  0  0  0  0  0  0  0
    5.7456   -4.0991    0.0000 O   0  0  0  0  0  0  0  0  0  0  0  0
    3.4313   -2.7750    0.0000 S   0  0  0  0  0  0  0  0  0  0  0  0
    5.2620   -2.2798    0.0000 O   0  0  0  0  0  0  0  0  0  0  0  0
    6.8971   -3.4428    0.0000 C   0  0  0  0  0  0  0  0  0  0  0  0
    2.2798   -3.4658    0.0000 C   0  0  0  0  0  0  0  0  0  0  0  0
    4.5827   -1.1399    0.0000 C   0  0  0  0  0  0  0  0  0  0  0  0
    6.8971   -2.0956    0.0000 C   0  0  0  0  0  0  0  0  0  0  0  0
    8.0140   -4.0991    0.0000 C   0  0  0  0  0  0  0  0  0  0  0  0
    1.1169   -2.8095    0.0000 C   0  0  0  0  0  0  0  0  0  0  0  0
    5.2390   -0.0000    0.0000 C   0  0  0  0  0  0  0  0  0  0  0  0
    8.0140   -1.4623    0.0000 C   0  0  0  0  0  0  0  0  0  0  0  0
    9.1999   -3.4313    0.0000 C   0  0  0  0  0  0  0  0  0  0  0  0
    0.0000   -3.4773    0.0000 C   0  0  0  0  0  0  0  0  0  0  0  0
    9.1999   -2.0956    0.0000 C   0  0  0  0  0  0  0  0  0  0  0  0
   10.3629   -1.4393    0.0000 S   0  0  0  0  0  0  0  0  0  0  0  0
   11.5143   -2.0956    0.0000 C   0  0  0  0  0  0  0  0  0  0  0  0
  1  2  2  0  0  0  0 
  1  3  1  0  0  0  0 
  1  4  1  0  0  0  0 
  1  5  1  0  0  0  0 
  3  6  1  0  0  0  0 
  4  7  1  0  0  0  0 
  5  8  1  0  0  0  0 
  6  9  1  0  0  0  0 
  6 10  2  0  0  0  0 
  7 11  1  0  0  0  0 
  8 12  1  0  0  0  0 
  9 13  2  0  0  0  0 
 10 14  1  0  0  0  0 
 11 15  1  0  0  0  0 
 16 13  1  0  0  0  0 
 16 14  2  0  0  0  0 
 16 17  1  0  0  0  0 
 17 18  1  0  0  0  0 
M  END
> <Name>
SULPROFOS

> <Source>
DSSTox2DMolFile

> <Tox>
-5.921

> <CAS>
35400-43-2

$$$$

  CDK

 15 16  0  0  0  0  0  0  0  0999 V2000
    1.7657    0.5045    0.0000 C   0  0  0  0  0  0  0  0  0  0  0  0
    1.7657    1.5135    0.0000 C   0  0  0  0  0  0  0  0  0  0  0  0
    0.9081    0.0000    0.0000 C   0  0  0  0  0  0  0  0  0  0  0  0
    0.9081    1.9675    0.0000 C   0  0  0  0  0  0  0  0  0  0  0  0
    2.6233    1.9675    0.0000 C   0  0  0  0  0  0  0  0  0  0  0  0
    0.0000    0.5045    0.0000 C   0  0  0  0  0  0  0  0  0  0  0  0
    0.0000    1.5135    0.0000 C   0  0  0  0  0  0  0  0  0  0  0  0
    2.6233    2.9765    0.0000 C   0  0  0  0  0  0  0  0  0  0  0  0
    3.4305    1.5135    0.0000 C   0  0  0  0  0  0  0  0  0  0  0  0
    3.4810    3.4810    0.0000 C   0  0  0  0  0  0  0  0  0  0  0  0
    1.7657    3.4810    0.0000 Cl  0  0  0  0  0  0  0  0  0  0  0  0
    4.3386    1.9675    0.0000 C   0  0  0  0  0  0  0  0  0  0  0  0
    3.4305    0.5045    0.0000 Cl  0  0  0  0  0  0  0  0  0  0  0  0
    4.3386    2.9765    0.0000 C   0  0  0  0  0  0  0  0  0  0  0  0
    5.2467    3.4810    0.0000 Cl  0  0  0  0  0  0  0  0  0  0  0  0
  2  1  2  0  0  0  0 
  1  3  1  0  0  0  0 
  4  2  1  0  0  0  0 
  2  5  1  0  0  0  0 
  3  6  2  0  0  0  0 
  7  4  2  0  0  0  0 
  5  8  2  0  0  0  0 
  9  5  1  0  0  0  0 
  6  7  1  0  0  0  0 
  8 10  1  0  0  0  0 
  8 11  1  0  0  0  0 
 12  9  2  0  0  0  0 
  9 13  1  0  0  0  0 
 10 14  2  0  0  0  0 
 14 12  1  0  0  0  0 
 14 15  1  0  0  0  0 
M  END
> <Name>
2,4,6-TRICHLOROBIPHENYL

> <Source>
NIST2DMolFile

> <Tox>
-3.145

> <CAS>
35693-92-6

$$$$

  CDK

 17 16  0  0  0  0  0  0  0  0999 V2000
   16.1347   -0.6638    0.0000 C   0  0  0  0  0  0  0  0  0  0  0  0
   14.9915   -0.0000    0.0000 C   0  0  0  0  0  0  0  0  0  0  0  0
   17.2780   -0.0000    0.0000 C   0  0  0  0  0  0  0  0  0  0  0  0
   13.8298   -0.6638    0.0000 C   0  0  0  0  0  0  0  0  0  0  0  0
   18.4397   -0.6638    0.0000 C   0  0  0  0  0  0  0  0  0  0  0  0
   12.6865   -0.0000    0.0000 C   0  0  0  0  0  0  0  0  0  0  0  0
   11.5248   -0.6638    0.0000 C   0  0  0  0  0  0  0  0  0  0  0  0
   10.3815   -0.0000    0.0000 C   0  0  0  0  0  0  0  0  0  0  0  0
    9.2198   -0.6638    0.0000 C   0  0  0  0  0  0  0  0  0  0  0  0
    8.0581   -0.0000    0.0000 C   0  0  0  0  0  0  0  0  0  0  0  0
    6.9149   -0.6638    0.0000 C   0  0  0  0  0  0  0  0  0  0  0  0
    5.7716   -0.0000    0.0000 C   0  0  0  0  0  0  0  0  0  0  0  0
    4.6099   -0.6638    0.0000 C   0  0  0  0  0  0  0  0  0  0  0  0
    3.4667   -0.0000    0.0000 C   0  0  0  0  0  0  0  0  0  0  0  0
    2.3050   -0.6638    0.0000 C   0  0  0  0  0  0  0  0  0  0  0  0
    1.1617   -0.0000    0.0000 C   0  0  0  0  0  0  0  0  0  0  0  0
    0.0000   -0.6638    0.0000 O   0  0  0  0  0  0  0  0  0  0  0  0
  1  2  1  0  0  0  0 
  1  3  1  0  0  0  0 
  2  4  1  0  0  0  0 
  3  5  1  0  0  0  0 
  4  6  1  0  0  0  0 
  6  7  1  0  0  0  0 
  7  8  1  0  0  0  0 
  8  9  1  0  0  0  0 
  9 10  1  0  0  0  0 
 10 11  1  0  0  0  0 
 11 12  1  0  0  0  0 
 12 13  1  0  0  0  0 
 13 14  1  0  0  0  0 
 14 15  1  0  0  0  0 
 15 16  1  0  0  0  0 
 16 17  1  0  0  0  0 
M  END
> <Name>
1-HEXADECANOL

> <Source>
DSSTox2DMolFile

> <Tox>
-5.222

> <CAS>
36653-82-4

$$$$

  CDK

 21 22  0  0  0  0  0  0  0  0999 V2000
    6.7359   -2.3587    0.0000 N   0  0  0  0  0  0  0  0  0  0  0  0
    5.7040   -3.1185    0.0000 C   0  0  0  0  0  0  0  0  0  0  0  0
    7.8812   -3.0618    0.0000 C   0  0  0  0  0  0  0  0  0  0  0  0
    6.3390   -1.0886    0.0000 C   0  0  0  0  0  0  0  0  0  0  0  0
    4.6040   -2.3247    0.0000 N   0  0  0  0  0  0  0  0  0  0  0  0
    5.7040   -4.4906    0.0000 O   0  0  0  0  0  0  0  0  0  0  0  0
    9.0266   -2.4381    0.0000 N   0  0  0  0  0  0  0  0  0  0  0  0
    7.8812   -4.3772    0.0000 O   0  0  0  0  0  0  0  0  0  0  0  0
    5.0122   -1.0886    0.0000 C   0  0  0  0  0  0  0  0  0  0  0  0
    3.4813   -2.9937    0.0000 C   0  0  0  0  0  0  0  0  0  0  0  0
   10.1832   -3.1185    0.0000 C   0  0  0  0  0  0  0  0  0  0  0  0
    4.2298   -0.0000    0.0000 O   0  0  0  0  0  0  0  0  0  0  0  0
    2.3247   -2.3587    0.0000 C   0  0  0  0  0  0  0  0  0  0  0  0
    3.4813   -4.3432    0.0000 C   0  0  0  0  0  0  0  0  0  0  0  0
   11.3399   -2.4381    0.0000 C   0  0  0  0  0  0  0  0  0  0  0  0
   10.1832   -4.4566    0.0000 C   0  0  0  0  0  0  0  0  0  0  0  0
    1.1907   -2.9937    0.0000 C   0  0  0  0  0  0  0  0  0  0  0  0
    2.3247   -5.0009    0.0000 C   0  0  0  0  0  0  0  0  0  0  0  0
    0.0000   -2.3133    0.0000 Cl  0  0  0  0  0  0  0  0  0  0  0  0
    1.1907   -4.3432    0.0000 C   0  0  0  0  0  0  0  0  0  0  0  0
    2.3247   -6.3277    0.0000 Cl  0  0  0  0  0  0  0  0  0  0  0  0
  1  2  1  0  0  0  0 
  1  3  1  0  0  0  0 
  1  4  1  0  0  0  0 
  2  5  1  0  0  0  0 
  2  6  2  0  0  0  0 
  3  7  1  0  0  0  0 
  3  8  2  0  0  0  0 
  9  4  1  0  0  0  0 
  5 10  1  0  0  0  0 
  5  9  1  0  0  0  0 
  7 11  1  0  0  0  0 
  9 12  2  0  0  0  0 
 10 13  1  0  0  0  0 
 10 14  2  0  0  0  0 
 11 15  1  0  0  0  0 
 11 16  1  0  0  0  0 
 13 17  2  0  0  0  0 
 14 18  1  0  0  0  0 
 17 19  1  0  0  0  0 
 17 20  1  0  0  0  0 
 18 20  2  0  0  0  0 
 18 21  1  0  0  0  0 
M  END
> <Name>
ROVRAL (IPRODIONE)

> <Source>
DSSTox2DMolFile

> <Tox>
-8.426

> <CAS>
36734-19-7

$$$$

  CDK

 15 16  0  0  0  0  0  0  0  0999 V2000
   -0.2483   -0.2074    0.2756 C   0  0  0  0  0  0  0  0  0  0  0  0
   -0.5772   -1.5120   -0.1057 C   0  0  0  0  0  0  0  0  0  0  0  0
   -1.2663    0.7303    0.4563 C   0  0  0  0  0  0  0  0  0  0  0  0
    1.1485    0.1891    0.5102 C   0  0  0  0  0  0  0  0  0  0  0  0
   -1.9073   -1.8796   -0.3103 C   0  0  0  0  0  0  0  0  0  0  0  0
    0.6226   -2.6720   -0.3296 Cl  0  0  0  0  0  0  0  0  0  0  0  0
   -2.5903    0.3534    0.2512 C   0  0  0  0  0  0  0  0  0  0  0  0
    1.8916    0.8427   -0.4765 C   0  0  0  0  0  0  0  0  0  0  0  0
    1.7399   -0.0732    1.7481 C   0  0  0  0  0  0  0  0  0  0  0  0
   -2.9189   -0.9458   -0.1320 C   0  0  0  0  0  0  0  0  0  0  0  0
   -3.8166    1.4883    0.4695 Cl  0  0  0  0  0  0  0  0  0  0  0  0
    3.2100    1.2252   -0.2336 C   0  0  0  0  0  0  0  0  0  0  0  0
    1.2157    1.1830   -1.9819 Cl  0  0  0  0  0  0  0  0  0  0  0  0
    3.0540    0.3102    1.9899 C   0  0  0  0  0  0  0  0  0  0  0  0
    3.7886    0.9576    1.0006 C   0  0  0  0  0  0  0  0  0  0  0  0
  1  2  1  0  0  0  0 
  1  3  2  0  0  0  0 
  1  4  1  0  0  0  0 
  2  5  2  0  0  0  0 
  2  6  1  0  0  0  0 
  7  3  1  0  0  0  0 
  4  8  1  0  0  0  0 
  4  9  2  0  0  0  0 
  5 10  1  0  0  0  0 
 10  7  2  0  0  0  0 
  7 11  1  0  0  0  0 
  8 12  2  0  0  0  0 
  8 13  1  0  0  0  0 
 14  9  1  0  0  0  0 
 12 15  1  0  0  0  0 
 15 14  2  0  0  0  0 
M  END
> <Name>
2,2',5-TRICHLOROBIPHENYL

> <Source>
DougDB3DMolFile

> <Tox>
-2.979

> <CAS>
37680-65-2

$$$$

  CDK

 17 18  0  0  0  0  0  0  0  0999 V2000
    8.4544    2.7904    0.0000 Cl  0  0  0  0  0  0  0  0  0  0  0  0
    7.2467    2.0824    0.0000 C   0  0  0  0  0  0  0  0  0  0  0  0
    7.2467    0.7080    0.0000 C   0  0  0  0  0  0  0  0  0  0  0  0
    6.0389    2.7904    0.0000 C   0  0  0  0  0  0  0  0  0  0  0  0
    6.0389    0.0000    0.0000 C   0  0  0  0  0  0  0  0  0  0  0  0
    4.8311    2.0824    0.0000 C   0  0  0  0  0  0  0  0  0  0  0  0
    4.8311    0.7080    0.0000 C   0  0  0  0  0  0  0  0  0  0  0  0
    3.6233    2.7904    0.0000 C   0  0  0  0  0  0  0  0  0  0  0  0
    3.6233    0.0000    0.0000 Cl  0  0  0  0  0  0  0  0  0  0  0  0
    2.4156    2.0824    0.0000 C   0  0  0  0  0  0  0  0  0  0  0  0
    3.6233    4.2064    0.0000 C   0  0  0  0  0  0  0  0  0  0  0  0
    1.2078    2.7904    0.0000 C   0  0  0  0  0  0  0  0  0  0  0  0
    2.4156    4.8728    0.0000 C   0  0  0  0  0  0  0  0  0  0  0  0
    4.8311    4.8728    0.0000 Cl  0  0  0  0  0  0  0  0  0  0  0  0
    0.0000    2.0824    0.0000 Cl  0  0  0  0  0  0  0  0  0  0  0  0
    1.2078    4.2064    0.0000 C   0  0  0  0  0  0  0  0  0  0  0  0
    0.0000    4.8728    0.0000 Cl  0  0  0  0  0  0  0  0  0  0  0  0
  1  2  1  0  0  0  0 
  2  3  1  0  0  0  0 
  2  4  2  0  0  0  0 
  3  5  2  0  0  0  0 
  6  4  1  0  0  0  0 
  5  7  1  0  0  0  0 
  7  6  2  0  0  0  0 
  6  8  1  0  0  0  0 
  7  9  1  0  0  0  0 
  8 10  2  0  0  0  0 
  8 11  1  0  0  0  0 
 10 12  1  0  0  0  0 
 13 11  2  0  0  0  0 
 11 14  1  0  0  0  0 
 12 15  1  0  0  0  0 
 12 16  2  0  0  0  0 
 16 13  1  0  0  0  0 
 16 17  1  0  0  0  0 
M  END
> <Name>
2,4,5,2',5'-PENTACHLOROBIPHENYL

> <Source>
IndexNet2DMolFile

> <Tox>
-4.599

> <CAS>
37680-73-2

$$$$

  CDK

 12 11  0  0  0  0  0  0  0  0999 V2000
    2.3022   -3.9890    0.0000 C   0  0  0  0  0  0  0  0  0  0  0  0
    2.3022   -5.3164    0.0000 O   0  0  0  0  0  0  0  0  0  0  0  0
    3.4567   -3.3323    0.0000 N   0  0  0  0  0  0  0  0  0  0  0  0
    1.1545   -3.3323    0.0000 C   0  0  0  0  0  0  0  0  0  0  0  0
    4.6113   -3.9890    0.0000 C   0  0  0  0  0  0  0  0  0  0  0  0
    3.4567   -1.9911    0.0000 C   0  0  0  0  0  0  0  0  0  0  0  0
    1.1545   -1.9911    0.0000 Cl  0  0  0  0  0  0  0  0  0  0  0  0
    0.0000   -3.9890    0.0000 Cl  0  0  0  0  0  0  0  0  0  0  0  0
    5.7589   -3.3323    0.0000 C   0  0  0  0  0  0  0  0  0  0  0  0
    2.3022   -1.3343    0.0000 C   0  0  0  0  0  0  0  0  0  0  0  0
    6.9134   -3.9890    0.0000 C   0  0  0  0  0  0  0  0  0  0  0  0
    2.3022   -0.0000    0.0000 C   0  0  0  0  0  0  0  0  0  0  0  0
  1  2  2  0  0  0  0 
  1  3  1  0  0  0  0 
  1  4  1  0  0  0  0 
  3  5  1  0  0  0  0 
  3  6  1  0  0  0  0 
  4  7  1  0  0  0  0 
  4  8  1  0  0  0  0 
  5  9  1  0  0  0  0 
  6 10  1  0  0  0  0 
  9 11  2  0  0  0  0 
 10 12  2  0  0  0  0 
M  END
> <Name>
ACETAMIDE, 2,2-DICHLORO-N,N-DI-2-PROPENYL-

> <Source>
DSSTox2DMolFile

> <Tox>
-2.222

> <CAS>
37764-25-3

$$$$

  CDK

 24 25  0  0  0  0  0  0  0  0999 V2000
    5.2199    2.5340    0.0000 C   0  0  0  0  0  0  0  0  0  0  0  0
    5.2199    3.4969    0.0000 C   0  0  0  0  0  0  0  0  0  0  0  0
    4.3077    2.0272    0.0000 C   0  0  0  0  0  0  0  0  0  0  0  0
    6.0815    2.0272    0.0000 S   0  0  0  0  0  0  0  0  0  0  0  0
    4.3077    4.0036    0.0000 C   0  0  0  0  0  0  0  0  0  0  0  0
    3.4969    2.5340    0.0000 C   0  0  0  0  0  0  0  0  0  0  0  0
    6.5883    2.8380    0.0000 O   0  0  0  0  0  0  0  0  0  0  0  0
    6.9937    1.5204    0.0000 C   0  0  0  0  0  0  0  0  0  0  0  0
    5.5747    1.1149    0.0000 O   0  0  0  0  0  0  0  0  0  0  0  0
    3.4969    3.4969    0.0000 C   0  0  0  0  0  0  0  0  0  0  0  0
    4.3077    4.9665    0.0000 C   0  0  0  0  0  0  0  0  0  0  0  0
    7.8552    2.0272    0.0000 C   0  0  0  0  0  0  0  0  0  0  0  0
    6.9937    0.5068    0.0000 C   0  0  0  0  0  0  0  0  0  0  0  0
    2.5846    4.0036    0.0000 N   0  0  0  0  0  0  0  0  0  0  0  0
    8.7168    1.5204    0.0000 C   0  0  0  0  0  0  0  0  0  0  0  0
    7.8552    0.0000    0.0000 C   0  0  0  0  0  0  0  0  0  0  0  0
    1.7231    3.4462    0.0000 S   0  0  0  0  0  0  0  0  0  0  0  0
    8.7168    0.5068    0.0000 C   0  0  0  0  0  0  0  0  0  0  0  0
    2.2299    2.6353    0.0000 O   0  0  0  0  0  0  0  0  0  0  0  0
    0.8615    2.9394    0.0000 C   0  0  0  0  0  0  0  0  0  0  0  0
    1.2163    4.3584    0.0000 O   0  0  0  0  0  0  0  0  0  0  0  0
    1.3683    2.1285    0.0000 F   0  0  0  0  0  0  0  0  0  0  0  0
    0.0000    2.4833    0.0000 F   0  0  0  0  0  0  0  0  0  0  0  0
    0.3548    3.8516    0.0000 F   0  0  0  0  0  0  0  0  0  0  0  0
  2  1  2  0  0  0  0 
  1  3  1  0  0  0  0 
  1  4  1  0  0  0  0 
  5  2  1  0  0  0  0 
  3  6  2  0  0  0  0 
  4  7  2  0  0  0  0 
  4  8  1  0  0  0  0 
  4  9  2  0  0  0  0 
 10  5  2  0  0  0  0 
  5 11  1  0  0  0  0 
  6 10  1  0  0  0  0 
  8 12  2  0  0  0  0 
 13  8  1  0  0  0  0 
 10 14  1  0  0  0  0 
 12 15  1  0  0  0  0 
 16 13  2  0  0  0  0 
 14 17  1  0  0  0  0 
 15 18  2  0  0  0  0 
 18 16  1  0  0  0  0 
 17 19  2  0  0  0  0 
 17 20  1  0  0  0  0 
 17 21  2  0  0  0  0 
 20 22  1  0  0  0  0 
 20 23  1  0  0  0  0 
 20 24  1  0  0  0  0 
M  END
> <Name>
PERFLUIDONE

> <Source>
NIST2DMolFile

> <Tox>
-5.046

> <CAS>
37924-13-3

$$$$

  CDK

 18 18  0  0  0  0  0  0  0  0999 V2000
    1.9539    0.6513    0.0000 C   0  0  0  0  0  0  0  0  0  0  0  0
    2.9559    0.6513    0.0000 O   0  0  0  0  0  0  0  0  0  0  0  0
    3.4569    1.5030    0.0000 P   0  0  0  0  0  0  0  0  0  0  0  0
    4.3587    1.0020    0.0000 O   0  0  0  0  0  0  0  0  0  0  0  0
    3.9579    2.3547    0.0000 S   0  0  0  0  0  0  0  0  0  0  0  0
    2.6052    2.0040    0.0000 O   0  0  0  0  0  0  0  0  0  0  0  0
    4.3587    0.0000    0.0000 C   0  0  0  0  0  0  0  0  0  0  0  0
    2.6052    3.0060    0.0000 C   0  0  0  0  0  0  0  0  0  0  0  0
    3.4569    3.5070    0.0000 N   0  0  0  0  0  0  0  0  0  0  0  0
    1.7535    3.5070    0.0000 C   0  0  0  0  0  0  0  0  0  0  0  0
    3.4569    4.5090    0.0000 C   0  0  0  0  0  0  0  0  0  0  0  0
    1.7535    4.5090    0.0000 C   0  0  0  0  0  0  0  0  0  0  0  0
    4.3587    5.0100    0.0000 C   0  0  0  0  0  0  0  0  0  0  0  0
    2.6052    5.0100    0.0000 N   0  0  0  0  0  0  0  0  0  0  0  0
    0.8517    5.0100    0.0000 O   0  0  0  0  0  0  0  0  0  0  0  0
    5.2104    4.5090    0.0000 C   0  0  0  0  0  0  0  0  0  0  0  0
    0.0000    4.5090    0.0000 C   0  0  0  0  0  0  0  0  0  0  0  0
    0.0000    3.5070    0.0000 C   0  0  0  0  0  0  0  0  0  0  0  0
  1  2  1  0  0  0  0 
  2  3  1  0  0  0  0 
  4  3  1  0  0  0  0 
  5  3  2  0  0  0  0 
  3  6  1  0  0  0  0 
  7  4  1  0  0  0  0 
  6  8  1  0  0  0  0 
  9  8  2  0  0  0  0 
  8 10  1  0  0  0  0 
 11  9  1  0  0  0  0 
 10 12  2  0  0  0  0 
 13 11  1  0  0  0  0 
 14 11  2  0  0  0  0 
 15 12  1  0  0  0  0 
 12 14  1  0  0  0  0 
 16 13  1  0  0  0  0 
 17 15  1  0  0  0  0 
 18 17  1  0  0  0  0 
M  END
> <Name>
ETRIMFOS

> <Source>
NIST2DMolFile

> <Tox>
-4.097

> <CAS>
38260-54-7

$$$$

  CDK

 17 18  0  0  0  0  0  0  0  0999 V2000
    4.0049    3.5043    0.0000 Cl  0  0  0  0  0  0  0  0  0  0  0  0
    4.5055    2.6032    0.0000 C   0  0  0  0  0  0  0  0  0  0  0  0
    4.0049    1.7521    0.0000 C   0  0  0  0  0  0  0  0  0  0  0  0
    5.5068    2.6032    0.0000 C   0  0  0  0  0  0  0  0  0  0  0  0
    4.5055    0.9011    0.0000 C   0  0  0  0  0  0  0  0  0  0  0  0
    3.0037    1.7521    0.0000 C   0  0  0  0  0  0  0  0  0  0  0  0
    6.0074    1.7521    0.0000 C   0  0  0  0  0  0  0  0  0  0  0  0
    5.5068    0.9011    0.0000 C   0  0  0  0  0  0  0  0  0  0  0  0
    2.5031    0.9011    0.0000 C   0  0  0  0  0  0  0  0  0  0  0  0
    2.5031    2.6032    0.0000 C   0  0  0  0  0  0  0  0  0  0  0  0
    7.0086    1.7521    0.0000 Cl  0  0  0  0  0  0  0  0  0  0  0  0
    6.0074    0.0000    0.0000 Cl  0  0  0  0  0  0  0  0  0  0  0  0
    3.0037    0.0000    0.0000 Cl  0  0  0  0  0  0  0  0  0  0  0  0
    1.5018    0.9011    0.0000 C   0  0  0  0  0  0  0  0  0  0  0  0
    1.5018    2.6032    0.0000 C   0  0  0  0  0  0  0  0  0  0  0  0
    1.0012    1.7521    0.0000 C   0  0  0  0  0  0  0  0  0  0  0  0
    0.0000    1.7521    0.0000 Cl  0  0  0  0  0  0  0  0  0  0  0  0
  1  2  1  0  0  0  0 
  2  3  2  0  0  0  0 
  4  2  1  0  0  0  0 
  3  5  1  0  0  0  0 
  3  6  1  0  0  0  0 
  7  4  2  0  0  0  0 
  5  8  2  0  0  0  0 
  9  6  2  0  0  0  0 
  6 10  1  0  0  0  0 
  8  7  1  0  0  0  0 
  7 11  1  0  0  0  0 
  8 12  1  0  0  0  0 
  9 13  1  0  0  0  0 
 14  9  1  0  0  0  0 
 10 15  2  0  0  0  0 
 16 14  2  0  0  0  0 
 15 16  1  0  0  0  0 
 16 17  1  0  0  0  0 
M  END
> <Name>
2,2',4,4',5-PENTACHLOROBIPHENYL

> <Source>
NIST2DMolFile

> <Tox>
-4.658

> <CAS>
38380-01-7

$$$$

  CDK

 17 18  0  0  0  0  0  0  0  0999 V2000
   -0.5250   -0.1407    0.0000 C   0  0  0  0  0  0  0  0  0  0  0  0
   -1.2250   -1.3531    0.0000 C   0  0  0  0  0  0  0  0  0  0  0  0
   -1.2250    1.0718    0.0000 C   0  0  0  0  0  0  0  0  0  0  0  0
    0.8750   -0.1407    0.0000 C   0  0  0  0  0  0  0  0  0  0  0  0
   -2.6250   -1.3531    0.0000 C   0  0  0  0  0  0  0  0  0  0  0  0
   -0.5250   -2.5655    0.0000 Cl  0  0  0  0  0  0  0  0  0  0  0  0
   -2.6250    1.0718    0.0000 C   0  0  0  0  0  0  0  0  0  0  0  0
    1.5750    1.0718    0.0000 C   0  0  0  0  0  0  0  0  0  0  0  0
    1.5750   -1.3531    0.0000 C   0  0  0  0  0  0  0  0  0  0  0  0
   -3.3250   -0.1407    0.0000 C   0  0  0  0  0  0  0  0  0  0  0  0
   -3.3250   -2.5655    0.0000 Cl  0  0  0  0  0  0  0  0  0  0  0  0
    2.9750    1.0718    0.0000 C   0  0  0  0  0  0  0  0  0  0  0  0
    0.8750    2.2842    0.0000 Cl  0  0  0  0  0  0  0  0  0  0  0  0
    2.9750   -1.3531    0.0000 C   0  0  0  0  0  0  0  0  0  0  0  0
   -4.7250   -0.1407    0.0000 Cl  0  0  0  0  0  0  0  0  0  0  0  0
    3.6750   -0.1407    0.0000 C   0  0  0  0  0  0  0  0  0  0  0  0
    3.6750   -2.5655    0.0000 Cl  0  0  0  0  0  0  0  0  0  0  0  0
  2  1  1  0  0  0  0 
  3  1  2  0  0  0  0 
  1  4  1  0  0  0  0 
  5  2  2  0  0  0  0 
  2  6  1  0  0  0  0 
  3  7  1  0  0  0  0 
  8  4  1  0  0  0  0 
  9  4  2  0  0  0  0 
 10  5  1  0  0  0  0 
  5 11  1  0  0  0  0 
  7 10  2  0  0  0  0 
 12  8  2  0  0  0  0 
  8 13  1  0  0  0  0 
  9 14  1  0  0  0  0 
 10 15  1  0  0  0  0 
 16 12  1  0  0  0  0 
 14 16  2  0  0  0  0 
 14 17  1  0  0  0  0 
M  END
> <Name>
2,2',3,4,5'-PENTACHLOROBIPHENYL

> <Source>
IndexNet2DMolFile

> <Tox>
-4.770

> <CAS>
38380-02-8

$$$$

  CDK

 18 19  0  0  0  0  0  0  0  0999 V2000
    2.9942    3.4932    0.0000 Cl  0  0  0  0  0  0  0  0  0  0  0  0
    3.4932    2.5949    0.0000 C   0  0  0  0  0  0  0  0  0  0  0  0
    2.9942    1.7466    0.0000 C   0  0  0  0  0  0  0  0  0  0  0  0
    4.4912    2.5949    0.0000 C   0  0  0  0  0  0  0  0  0  0  0  0
    3.4932    0.8982    0.0000 C   0  0  0  0  0  0  0  0  0  0  0  0
    1.9961    1.7466    0.0000 C   0  0  0  0  0  0  0  0  0  0  0  0
    4.9903    1.7466    0.0000 C   0  0  0  0  0  0  0  0  0  0  0  0
    4.4912    0.8982    0.0000 C   0  0  0  0  0  0  0  0  0  0  0  0
    1.4971    0.8982    0.0000 C   0  0  0  0  0  0  0  0  0  0  0  0
    1.4971    2.5949    0.0000 C   0  0  0  0  0  0  0  0  0  0  0  0
    5.9883    1.7466    0.0000 Cl  0  0  0  0  0  0  0  0  0  0  0  0
    4.9903    0.0000    0.0000 Cl  0  0  0  0  0  0  0  0  0  0  0  0
    1.9961    0.0000    0.0000 Cl  0  0  0  0  0  0  0  0  0  0  0  0
    0.4990    0.8982    0.0000 C   0  0  0  0  0  0  0  0  0  0  0  0
    1.9961    3.4932    0.0000 Cl  0  0  0  0  0  0  0  0  0  0  0  0
    0.4990    2.5949    0.0000 C   0  0  0  0  0  0  0  0  0  0  0  0
    0.0000    0.0000    0.0000 Cl  0  0  0  0  0  0  0  0  0  0  0  0
    0.0000    1.7466    0.0000 C   0  0  0  0  0  0  0  0  0  0  0  0
  1  2  1  0  0  0  0 
  2  3  2  0  0  0  0 
  4  2  1  0  0  0  0 
  3  5  1  0  0  0  0 
  3  6  1  0  0  0  0 
  7  4  2  0  0  0  0 
  5  8  2  0  0  0  0 
  9  6  2  0  0  0  0 
  6 10  1  0  0  0  0 
  8  7  1  0  0  0  0 
  7 11  1  0  0  0  0 
  8 12  1  0  0  0  0 
  9 13  1  0  0  0  0 
 14  9  1  0  0  0  0 
 10 15  1  0  0  0  0 
 10 16  2  0  0  0  0 
 14 17  1  0  0  0  0 
 18 14  2  0  0  0  0 
 16 18  1  0  0  0  0 
M  END
> <Name>
2,2',3,4',5',6-PCB

> <Source>
NIST2DMolFile

> <Tox>
-5.074

> <CAS>
38380-04-0

$$$$

  CDK

 18 19  0  0  0  0  0  0  0  0999 V2000
    3.9984    3.4986    0.0000 Cl  0  0  0  0  0  0  0  0  0  0  0  0
    4.4982    2.5990    0.0000 C   0  0  0  0  0  0  0  0  0  0  0  0
    3.9984    1.7493    0.0000 C   0  0  0  0  0  0  0  0  0  0  0  0
    5.4978    2.5990    0.0000 C   0  0  0  0  0  0  0  0  0  0  0  0
    4.4982    0.8996    0.0000 C   0  0  0  0  0  0  0  0  0  0  0  0
    2.9988    1.7493    0.0000 C   0  0  0  0  0  0  0  0  0  0  0  0
    5.9976    3.4986    0.0000 Cl  0  0  0  0  0  0  0  0  0  0  0  0
    5.9976    1.7493    0.0000 C   0  0  0  0  0  0  0  0  0  0  0  0
    5.4978    0.8996    0.0000 C   0  0  0  0  0  0  0  0  0  0  0  0
    2.4990    0.8996    0.0000 C   0  0  0  0  0  0  0  0  0  0  0  0
    2.4990    2.5990    0.0000 C   0  0  0  0  0  0  0  0  0  0  0  0
    6.9972    1.7493    0.0000 Cl  0  0  0  0  0  0  0  0  0  0  0  0
    5.9976    0.0000    0.0000 Cl  0  0  0  0  0  0  0  0  0  0  0  0
    1.4994    0.8996    0.0000 C   0  0  0  0  0  0  0  0  0  0  0  0
    1.4994    2.5990    0.0000 C   0  0  0  0  0  0  0  0  0  0  0  0
    0.9996    0.0000    0.0000 Cl  0  0  0  0  0  0  0  0  0  0  0  0
    0.9996    1.7493    0.0000 C   0  0  0  0  0  0  0  0  0  0  0  0
    0.0000    1.7493    0.0000 Cl  0  0  0  0  0  0  0  0  0  0  0  0
  1  2  1  0  0  0  0 
  2  3  2  0  0  0  0 
  4  2  1  0  0  0  0 
  3  5  1  0  0  0  0 
  3  6  1  0  0  0  0 
  4  7  1  0  0  0  0 
  8  4  2  0  0  0  0 
  5  9  2  0  0  0  0 
 10  6  2  0  0  0  0 
  6 11  1  0  0  0  0 
  9  8  1  0  0  0  0 
  8 12  1  0  0  0  0 
  9 13  1  0  0  0  0 
 14 10  1  0  0  0  0 
 11 15  2  0  0  0  0 
 14 16  1  0  0  0  0 
 17 14  2  0  0  0  0 
 15 17  1  0  0  0  0 
 17 18  1  0  0  0  0 
M  END
> <Name>
2,3,3',4,4',5-HEXACHLOROBIPHENYL

> <Source>
NIST2DMolFile

> <Tox>
-5.793

> <CAS>
38380-08-4

$$$$

  CDK

 15 16  0  0  0  0  0  0  0  0999 V2000
    1.5049    0.9029    0.0000 C   0  0  0  0  0  0  0  0  0  0  0  0
    2.0065    0.0000    0.0000 Cl  0  0  0  0  0  0  0  0  0  0  0  0
    2.0065    1.7557    0.0000 C   0  0  0  0  0  0  0  0  0  0  0  0
    0.5016    0.9029    0.0000 C   0  0  0  0  0  0  0  0  0  0  0  0
    1.5049    2.6084    0.0000 C   0  0  0  0  0  0  0  0  0  0  0  0
    3.0097    1.7557    0.0000 C   0  0  0  0  0  0  0  0  0  0  0  0
    0.0000    1.7557    0.0000 C   0  0  0  0  0  0  0  0  0  0  0  0
    0.5016    2.6084    0.0000 C   0  0  0  0  0  0  0  0  0  0  0  0
    3.5113    2.6084    0.0000 C   0  0  0  0  0  0  0  0  0  0  0  0
    3.5113    0.9029    0.0000 C   0  0  0  0  0  0  0  0  0  0  0  0
    4.5146    2.6084    0.0000 C   0  0  0  0  0  0  0  0  0  0  0  0
    4.5146    0.9029    0.0000 C   0  0  0  0  0  0  0  0  0  0  0  0
    5.0162    3.5113    0.0000 Cl  0  0  0  0  0  0  0  0  0  0  0  0
    5.0162    1.7557    0.0000 C   0  0  0  0  0  0  0  0  0  0  0  0
    6.0194    1.7557    0.0000 Cl  0  0  0  0  0  0  0  0  0  0  0  0
  1  2  1  0  0  0  0 
  1  3  2  0  0  0  0 
  4  1  1  0  0  0  0 
  3  5  1  0  0  0  0 
  3  6  1  0  0  0  0 
  7  4  2  0  0  0  0 
  5  8  2  0  0  0  0 
  9  6  2  0  0  0  0 
  6 10  1  0  0  0  0 
  8  7  1  0  0  0  0 
 11  9  1  0  0  0  0 
 10 12  2  0  0  0  0 
 11 13  1  0  0  0  0 
 14 11  2  0  0  0  0 
 12 14  1  0  0  0  0 
 14 15  1  0  0  0  0 
M  END
> <Name>
2',3,4-TRICHLOROBIPHENYL

> <Source>
NIST2DMolFile

> <Tox>
-3.987

> <CAS>
38444-86-9

$$$$

  CDK

 16 18  0  0  0  0  0  0  0  0999 V2000
    3.6380    2.0988    0.0000 C   0  0  0  0  0  0  0  0  0  0  0  0
    3.6380    0.6996    0.0000 C   0  0  0  0  0  0  0  0  0  0  0  0
    4.8506    2.7984    0.0000 O   0  0  0  0  0  0  0  0  0  0  0  0
    2.4253    2.7984    0.0000 C   0  0  0  0  0  0  0  0  0  0  0  0
    4.8506    0.0000    0.0000 O   0  0  0  0  0  0  0  0  0  0  0  0
    2.4253    0.0000    0.0000 C   0  0  0  0  0  0  0  0  0  0  0  0
    6.0167    2.0988    0.0000 C   0  0  0  0  0  0  0  0  0  0  0  0
    1.2127    2.0988    0.0000 C   0  0  0  0  0  0  0  0  0  0  0  0
    6.0167    0.6996    0.0000 C   0  0  0  0  0  0  0  0  0  0  0  0
    1.2127    0.6996    0.0000 C   0  0  0  0  0  0  0  0  0  0  0  0
    7.2293    2.7984    0.0000 C   0  0  0  0  0  0  0  0  0  0  0  0
    0.0000    2.7984    0.0000 Cl  0  0  0  0  0  0  0  0  0  0  0  0
    7.2293    0.0000    0.0000 C   0  0  0  0  0  0  0  0  0  0  0  0
    8.4420    2.0988    0.0000 C   0  0  0  0  0  0  0  0  0  0  0  0
    8.4420    0.6996    0.0000 C   0  0  0  0  0  0  0  0  0  0  0  0
    9.6546    2.7984    0.0000 Cl  0  0  0  0  0  0  0  0  0  0  0  0
  1  2  2  0  0  0  0 
  1  3  1  0  0  0  0 
  1  4  1  0  0  0  0 
  2  5  1  0  0  0  0 
  2  6  1  0  0  0  0 
  7  3  1  0  0  0  0 
  4  8  2  0  0  0  0 
  5  9  1  0  0  0  0 
 10  6  2  0  0  0  0 
  9  7  2  0  0  0  0 
  7 11  1  0  0  0  0 
  8 10  1  0  0  0  0 
  8 12  1  0  0  0  0 
  9 13  1  0  0  0  0 
 14 11  2  0  0  0  0 
 13 15  2  0  0  0  0 
 15 14  1  0  0  0  0 
 14 16  1  0  0  0  0 
M  END
> <Name>
2,8-DICHLORODIBENZO-P-DIOXIN

> <Source>
IndexNet2DMolFile

> <Tox>
-5.979

> <CAS>
38964-22-6

$$$$

  CDK

 21 23  0  0  0  0  0  0  0  0999 V2000
    0.9130    1.4710    0.0000 C   0  0  0  0  0  0  0  0  0  0  0  0
    0.9130    2.3840    0.0000 C   0  0  0  0  0  0  0  0  0  0  0  0
    1.7753    1.0145    0.0000 C   0  0  0  0  0  0  0  0  0  0  0  0
    0.0000    1.0145    0.0000 Cl  0  0  0  0  0  0  0  0  0  0  0  0
    1.7753    2.8913    0.0000 C   0  0  0  0  0  0  0  0  0  0  0  0
    0.0000    2.8913    0.0000 Cl  0  0  0  0  0  0  0  0  0  0  0  0
    2.5869    1.4710    0.0000 C   0  0  0  0  0  0  0  0  0  0  0  0
    1.7753    0.0000    0.0000 Cl  0  0  0  0  0  0  0  0  0  0  0  0
    2.5869    2.4348    0.0000 C   0  0  0  0  0  0  0  0  0  0  0  0
    1.7753    3.8550    0.0000 Cl  0  0  0  0  0  0  0  0  0  0  0  0
    4.2608    1.4710    0.0000 C   0  0  0  0  0  0  0  0  0  0  0  0
    3.4492    2.8913    0.0000 O   0  0  0  0  0  0  0  0  0  0  0  0
    4.2608    2.3840    0.0000 C   0  0  0  0  0  0  0  0  0  0  0  0
    5.1231    1.0145    0.0000 C   0  0  0  0  0  0  0  0  0  0  0  0
    5.1231    2.8913    0.0000 C   0  0  0  0  0  0  0  0  0  0  0  0
    5.9854    1.4710    0.0000 C   0  0  0  0  0  0  0  0  0  0  0  0
    5.1231    0.0507    0.0000 Cl  0  0  0  0  0  0  0  0  0  0  0  0
    5.9854    2.3840    0.0000 C   0  0  0  0  0  0  0  0  0  0  0  0
    5.1231    3.8550    0.0000 Cl  0  0  0  0  0  0  0  0  0  0  0  0
    6.8478    1.0652    0.0000 Cl  0  0  0  0  0  0  0  0  0  0  0  0
    6.8478    2.8405    0.0000 Cl  0  0  0  0  0  0  0  0  0  0  0  0
  1  2  2  0  0  0  0 
  3  1  1  0  0  0  0 
  1  4  1  0  0  0  0 
  2  5  1  0  0  0  0 
  2  6  1  0  0  0  0 
  7  3  2  0  0  0  0 
  3  8  1  0  0  0  0 
  5  9  2  0  0  0  0 
  5 10  1  0  0  0  0 
  7  9  1  0  0  0  0 
 11  7  1  0  0  0  0 
  9 12  1  0  0  0  0 
 13 11  2  0  0  0  0 
 14 11  1  0  0  0  0 
 12 13  1  0  0  0  0 
 13 15  1  0  0  0  0 
 16 14  2  0  0  0  0 
 14 17  1  0  0  0  0 
 15 18  2  0  0  0  0 
 15 19  1  0  0  0  0 
 18 16  1  0  0  0  0 
 16 20  1  0  0  0  0 
 18 21  1  0  0  0  0 
M  END
> <Name>
OCTACHLORODIBENZOFURAN

> <Source>
NIST2DMolFile

> <Tox>
-11.426

> <CAS>
39001-02-0

$$$$

  CDK

 16 18  0  0  0  0  0  0  0  0999 V2000
   -5.3967   -0.8534    0.0002 Br  0  0  0  0  0  0  0  0  0  0  0  0
   -3.6373   -0.1629    0.0001 C   0  0  0  0  0  0  0  0  0  0  0  0
   -2.5474   -1.0338    0.0000 C   0  0  0  0  0  0  0  0  0  0  0  0
   -3.4312    1.2179    0.0002 C   0  0  0  0  0  0  0  0  0  0  0  0
   -1.2518   -0.5179   -0.0001 C   0  0  0  0  0  0  0  0  0  0  0  0
   -2.1344    1.7325    0.0001 C   0  0  0  0  0  0  0  0  0  0  0  0
   -0.2107   -1.4112   -0.0002 O   0  0  0  0  0  0  0  0  0  0  0  0
   -1.0461    0.8609   -0.0001 C   0  0  0  0  0  0  0  0  0  0  0  0
    1.0460   -0.8609   -0.0001 C   0  0  0  0  0  0  0  0  0  0  0  0
    0.2106    1.4113   -0.0003 O   0  0  0  0  0  0  0  0  0  0  0  0
    1.2518    0.5179   -0.0002 C   0  0  0  0  0  0  0  0  0  0  0  0
    2.1344   -1.7325    0.0001 C   0  0  0  0  0  0  0  0  0  0  0  0
    2.5473    1.0337   -0.0003 C   0  0  0  0  0  0  0  0  0  0  0  0
    3.4312   -1.2179    0.0001 C   0  0  0  0  0  0  0  0  0  0  0  0
    3.6373    0.1628   -0.0001 C   0  0  0  0  0  0  0  0  0  0  0  0
    5.3970    0.8535    0.0005 Br  0  0  0  0  0  0  0  0  0  0  0  0
  1  2  1  0  0  0  0 
  3  2  2  0  0  0  0 
  2  4  1  0  0  0  0 
  5  3  1  0  0  0  0 
  6  4  2  0  0  0  0 
  7  5  1  0  0  0  0 
  5  8  2  0  0  0  0 
  8  6  1  0  0  0  0 
  7  9  1  0  0  0  0 
 10  8  1  0  0  0  0 
 11  9  2  0  0  0  0 
  9 12  1  0  0  0  0 
 10 11  1  0  0  0  0 
 11 13  1  0  0  0  0 
 12 14  2  0  0  0  0 
 13 15  2  0  0  0  0 
 15 14  1  0  0  0  0 
 16 15  1  0  0  0  0 
M  END
> <Name>
2,7-DIBROMODIBENZO-P-DIOXIN

> <Source>
Chemidplus3DMolFile

> <Tox>
-5.947

> <CAS>
39073-07-9

$$$$

  CDK

 14 13  0  0  0  0  0  0  0  0999 V2000
    5.2033    3.0019    0.0000 C   0  0  0  0  0  0  0  0  0  0  0  0
    4.3528    2.5016    0.0000 C   0  0  0  0  0  0  0  0  0  0  0  0
    4.7030    3.8524    0.0000 C   0  0  0  0  0  0  0  0  0  0  0  0
    5.7036    2.1514    0.0000 C   0  0  0  0  0  0  0  0  0  0  0  0
    6.1039    3.5022    0.0000 C   0  0  0  0  0  0  0  0  0  0  0  0
    3.5022    3.0019    0.0000 N   0  0  0  0  0  0  0  0  0  0  0  0
    4.3528    1.5010    0.0000 C   0  0  0  0  0  0  0  0  0  0  0  0
    2.6016    2.5016    0.0000 O   0  0  0  0  0  0  0  0  0  0  0  0
    3.5022    1.0006    0.0000 S   0  0  0  0  0  0  0  0  0  0  0  0
    1.7511    3.0019    0.0000 C   0  0  0  0  0  0  0  0  0  0  0  0
    3.5022    0.0000    0.0000 C   0  0  0  0  0  0  0  0  0  0  0  0
    0.9006    2.5016    0.0000 N   0  0  0  0  0  0  0  0  0  0  0  0
    1.7511    4.0025    0.0000 O   0  0  0  0  0  0  0  0  0  0  0  0
    0.0000    3.0019    0.0000 C   0  0  0  0  0  0  0  0  0  0  0  0
  1  2  1  0  0  0  0 
  1  3  1  0  0  0  0 
  1  4  1  0  0  0  0 
  1  5  1  0  0  0  0 
  2  6  2  0  0  0  0 
  2  7  1  0  0  0  0 
  6  8  1  0  0  0  0 
  7  9  1  0  0  0  0 
  8 10  1  0  0  0  0 
  9 11  1  0  0  0  0 
 10 12  1  0  0  0  0 
 10 13  2  0  0  0  0 
 12 14  1  0  0  0  0 
M  END
> <Name>
THIOFANOX

> <Source>
NIST2DMolFile

> <Tox>
-3.770

> <CAS>
39196-18-4

$$$$

  CDK

 20 22  0  0  0  0  0  0  0  0999 V2000
    5.2113    4.0087    0.0000 Cl  0  0  0  0  0  0  0  0  0  0  0  0
    5.2113    3.0065    0.0000 C   0  0  0  0  0  0  0  0  0  0  0  0
    4.3094    2.5055    0.0000 C   0  0  0  0  0  0  0  0  0  0  0  0
    6.0632    2.5055    0.0000 C   0  0  0  0  0  0  0  0  0  0  0  0
    4.3094    1.5033    0.0000 C   0  0  0  0  0  0  0  0  0  0  0  0
    3.4575    3.0065    0.0000 O   0  0  0  0  0  0  0  0  0  0  0  0
    6.9151    3.0065    0.0000 Cl  0  0  0  0  0  0  0  0  0  0  0  0
    6.0632    1.5033    0.0000 C   0  0  0  0  0  0  0  0  0  0  0  0
    3.4575    1.0022    0.0000 O   0  0  0  0  0  0  0  0  0  0  0  0
    5.2113    1.0022    0.0000 C   0  0  0  0  0  0  0  0  0  0  0  0
    2.6057    2.5055    0.0000 C   0  0  0  0  0  0  0  0  0  0  0  0
    6.9151    1.0022    0.0000 Cl  0  0  0  0  0  0  0  0  0  0  0  0
    2.6057    1.5033    0.0000 C   0  0  0  0  0  0  0  0  0  0  0  0
    5.2113    0.0000    0.0000 Cl  0  0  0  0  0  0  0  0  0  0  0  0
    1.7037    3.0065    0.0000 C   0  0  0  0  0  0  0  0  0  0  0  0
    1.7037    1.0022    0.0000 C   0  0  0  0  0  0  0  0  0  0  0  0
    0.8519    2.5055    0.0000 C   0  0  0  0  0  0  0  0  0  0  0  0
    0.8519    1.5033    0.0000 C   0  0  0  0  0  0  0  0  0  0  0  0
    0.0000    3.0065    0.0000 Cl  0  0  0  0  0  0  0  0  0  0  0  0
    0.0000    1.0022    0.0000 Cl  0  0  0  0  0  0  0  0  0  0  0  0
  1  2  1  0  0  0  0 
  3  2  2  0  0  0  0 
  2  4  1  0  0  0  0 
  3  5  1  0  0  0  0 
  6  3  1  0  0  0  0 
  4  7  1  0  0  0  0 
  4  8  2  0  0  0  0 
  5  9  1  0  0  0  0 
 10  5  2  0  0  0  0 
 11  6  1  0  0  0  0 
  8 10  1  0  0  0  0 
  8 12  1  0  0  0  0 
  9 13  1  0  0  0  0 
 10 14  1  0  0  0  0 
 11 13  2  0  0  0  0 
 15 11  1  0  0  0  0 
 13 16  1  0  0  0  0 
 17 15  2  0  0  0  0 
 16 18  2  0  0  0  0 
 18 17  1  0  0  0  0 
 17 19  1  0  0  0  0 
 18 20  1  0  0  0  0 
M  END
> <Name>
1,2,3,4,7,8-HEXACHLORODIBENZO-P-DIOXIN

> <Source>
NIST2DMolFile

> <Tox>
-10.417

> <CAS>
39227-28-6

$$$$

  CDK

 15 17  0  0  0  0  0  0  0  0999 V2000
    4.3481    2.9987    0.0000 Cl  0  0  0  0  0  0  0  0  0  0  0  0
    4.3481    1.9991    0.0000 C   0  0  0  0  0  0  0  0  0  0  0  0
    3.4485    1.4993    0.0000 C   0  0  0  0  0  0  0  0  0  0  0  0
    5.1977    1.4993    0.0000 C   0  0  0  0  0  0  0  0  0  0  0  0
    3.4485    0.4998    0.0000 C   0  0  0  0  0  0  0  0  0  0  0  0
    2.5989    1.9991    0.0000 O   0  0  0  0  0  0  0  0  0  0  0  0
    5.1977    0.4998    0.0000 C   0  0  0  0  0  0  0  0  0  0  0  0
    2.5989    0.0000    0.0000 O   0  0  0  0  0  0  0  0  0  0  0  0
    4.3481    0.0000    0.0000 C   0  0  0  0  0  0  0  0  0  0  0  0
    1.7492    1.4993    0.0000 C   0  0  0  0  0  0  0  0  0  0  0  0
    1.7492    0.4998    0.0000 C   0  0  0  0  0  0  0  0  0  0  0  0
    0.8496    1.9991    0.0000 C   0  0  0  0  0  0  0  0  0  0  0  0
    0.8496    0.0000    0.0000 C   0  0  0  0  0  0  0  0  0  0  0  0
    0.0000    1.4993    0.0000 C   0  0  0  0  0  0  0  0  0  0  0  0
    0.0000    0.4998    0.0000 C   0  0  0  0  0  0  0  0  0  0  0  0
  1  2  1  0  0  0  0 
  3  2  2  0  0  0  0 
  2  4  1  0  0  0  0 
  3  5  1  0  0  0  0 
  6  3  1  0  0  0  0 
  4  7  2  0  0  0  0 
  5  8  1  0  0  0  0 
  9  5  2  0  0  0  0 
 10  6  1  0  0  0  0 
  7  9  1  0  0  0  0 
  8 11  1  0  0  0  0 
 10 11  2  0  0  0  0 
 12 10  1  0  0  0  0 
 11 13  1  0  0  0  0 
 14 12  2  0  0  0  0 
 13 15  2  0  0  0  0 
 15 14  1  0  0  0  0 
M  END
> <Name>
1-CHLORODIBENZO-P-DIOXIN

> <Source>
NIST2DMolFile

> <Tox>
-4.046

> <CAS>
39227-53-7

$$$$

  CDK

 17 19  0  0  0  0  0  0  0  0999 V2000
    2.4253    3.4981    0.0000 C   0  0  0  0  0  0  0  0  0  0  0  0
    2.4253    2.0988    0.0000 C   0  0  0  0  0  0  0  0  0  0  0  0
    3.6380    4.1977    0.0000 O   0  0  0  0  0  0  0  0  0  0  0  0
    1.2127    4.1977    0.0000 C   0  0  0  0  0  0  0  0  0  0  0  0
    3.6380    1.3992    0.0000 O   0  0  0  0  0  0  0  0  0  0  0  0
    1.2127    1.3992    0.0000 C   0  0  0  0  0  0  0  0  0  0  0  0
    4.8040    3.4981    0.0000 C   0  0  0  0  0  0  0  0  0  0  0  0
    0.0000    3.4981    0.0000 C   0  0  0  0  0  0  0  0  0  0  0  0
    4.8040    2.0988    0.0000 C   0  0  0  0  0  0  0  0  0  0  0  0
    0.0000    2.0988    0.0000 C   0  0  0  0  0  0  0  0  0  0  0  0
    6.0167    4.1977    0.0000 C   0  0  0  0  0  0  0  0  0  0  0  0
    6.0167    1.3992    0.0000 C   0  0  0  0  0  0  0  0  0  0  0  0
    7.2293    3.4981    0.0000 C   0  0  0  0  0  0  0  0  0  0  0  0
    6.0167    5.5969    0.0000 Cl  0  0  0  0  0  0  0  0  0  0  0  0
    7.2293    2.0988    0.0000 C   0  0  0  0  0  0  0  0  0  0  0  0
    6.0167    0.0000    0.0000 Cl  0  0  0  0  0  0  0  0  0  0  0  0
    8.4420    4.1977    0.0000 Cl  0  0  0  0  0  0  0  0  0  0  0  0
  1  2  2  0  0  0  0 
  1  3  1  0  0  0  0 
  1  4  1  0  0  0  0 
  2  5  1  0  0  0  0 
  2  6  1  0  0  0  0 
  7  3  1  0  0  0  0 
  4  8  2  0  0  0  0 
  5  9  1  0  0  0  0 
 10  6  2  0  0  0  0 
  9  7  2  0  0  0  0 
  7 11  1  0  0  0  0 
  8 10  1  0  0  0  0 
  9 12  1  0  0  0  0 
 13 11  2  0  0  0  0 
 11 14  1  0  0  0  0 
 12 15  2  0  0  0  0 
 12 16  1  0  0  0  0 
 15 13  1  0  0  0  0 
 13 17  1  0  0  0  0 
M  END
> <Name>
1,2,4-TRICHLORODIBENZO-P-DIOXIN

> <Source>
IndexNet2DMolFile

> <Tox>
-6.125

> <CAS>
39227-58-2

$$$$

  CDK

 19 21  0  0  0  0  0  0  0  0999 V2000
    0.8638    2.4973    0.0000 C   0  0  0  0  0  0  0  0  0  0  0  0
    1.7269    3.0013    0.0000 C   0  0  0  0  0  0  0  0  0  0  0  0
    0.8638    1.4950    0.0000 C   0  0  0  0  0  0  0  0  0  0  0  0
    2.5957    2.4973    0.0000 C   0  0  0  0  0  0  0  0  0  0  0  0
    1.7269    0.9967    0.0000 C   0  0  0  0  0  0  0  0  0  0  0  0
    0.0000    1.0023    0.0000 Cl  0  0  0  0  0  0  0  0  0  0  0  0
    2.5957    1.4950    0.0000 C   0  0  0  0  0  0  0  0  0  0  0  0
    3.4636    2.9985    0.0000 O   0  0  0  0  0  0  0  0  0  0  0  0
    3.4636    0.9939    0.0000 O   0  0  0  0  0  0  0  0  0  0  0  0
    4.3315    2.4973    0.0000 C   0  0  0  0  0  0  0  0  0  0  0  0
    4.3315    1.4950    0.0000 C   0  0  0  0  0  0  0  0  0  0  0  0
    5.1996    2.9985    0.0000 C   0  0  0  0  0  0  0  0  0  0  0  0
    5.1996    0.9939    0.0000 C   0  0  0  0  0  0  0  0  0  0  0  0
    6.0675    2.4973    0.0000 C   0  0  0  0  0  0  0  0  0  0  0  0
    5.1939    3.9979    0.0000 Cl  0  0  0  0  0  0  0  0  0  0  0  0
    6.0675    1.4950    0.0000 C   0  0  0  0  0  0  0  0  0  0  0  0
    5.1939    0.0000    0.0000 Cl  0  0  0  0  0  0  0  0  0  0  0  0
    6.9215    3.0067    0.0000 Cl  0  0  0  0  0  0  0  0  0  0  0  0
    6.9215    0.9967    0.0000 Cl  0  0  0  0  0  0  0  0  0  0  0  0
  1  2  2  0  0  0  0 
  3  1  1  0  0  0  0 
  2  4  1  0  0  0  0 
  5  3  2  0  0  0  0 
  3  6  1  0  0  0  0 
  7  4  2  0  0  0  0 
  4  8  1  0  0  0  0 
  7  5  1  0  0  0  0 
  9  7  1  0  0  0  0 
  8 10  1  0  0  0  0 
 11  9  1  0  0  0  0 
 11 10  2  0  0  0  0 
 10 12  1  0  0  0  0 
 13 11  1  0  0  0  0 
 12 14  2  0  0  0  0 
 12 15  1  0  0  0  0 
 16 13  2  0  0  0  0 
 13 17  1  0  0  0  0 
 14 16  1  0  0  0  0 
 14 18  1  0  0  0  0 
 16 19  1  0  0  0  0 
M  END
> <Name>
1,2,3,4,7-PENTACHLORODIBENZO-P-DIOXIN

> <Source>
NIST2DMolFile

> <Tox>
-9.180

> <CAS>
39227-61-7

$$$$

  CDK

 20 22  0  0  0  0  0  0  0  0999 V2000
    2.7950    2.7383   -0.0005 Cl  0  0  0  0  0  0  0  0  0  0  0  0
    2.5531    1.0196   -0.0003 C   0  0  0  0  0  0  0  0  0  0  0  0
    1.2547    0.5110   -0.0003 C   0  0  0  0  0  0  0  0  0  0  0  0
    3.6382    0.1427   -0.0003 C   0  0  0  0  0  0  0  0  0  0  0  0
    0.2184    1.4101   -0.0002 O   0  0  0  0  0  0  0  0  0  0  0  0
    1.0413   -0.8667   -0.0003 C   0  0  0  0  0  0  0  0  0  0  0  0
    5.2768    0.6981    0.0010 Cl  0  0  0  0  0  0  0  0  0  0  0  0
    3.4245   -1.2368   -0.0002 C   0  0  0  0  0  0  0  0  0  0  0  0
   -1.0413    0.8666   -0.0001 C   0  0  0  0  0  0  0  0  0  0  0  0
   -0.2185   -1.4101   -0.0005 O   0  0  0  0  0  0  0  0  0  0  0  0
    2.1249   -1.7443   -0.0003 C   0  0  0  0  0  0  0  0  0  0  0  0
   -1.2546   -0.5110   -0.0002 C   0  0  0  0  0  0  0  0  0  0  0  0
   -2.1247    1.7442    0.0003 C   0  0  0  0  0  0  0  0  0  0  0  0
    1.8992   -3.4557    0.0013 Cl  0  0  0  0  0  0  0  0  0  0  0  0
   -2.5530   -1.0197   -0.0002 C   0  0  0  0  0  0  0  0  0  0  0  0
   -1.8997    3.4556    0.0007 Cl  0  0  0  0  0  0  0  0  0  0  0  0
   -3.4244    1.2368    0.0003 C   0  0  0  0  0  0  0  0  0  0  0  0
   -2.7950   -2.7382   -0.0004 Cl  0  0  0  0  0  0  0  0  0  0  0  0
   -3.6381   -0.1428    0.0001 C   0  0  0  0  0  0  0  0  0  0  0  0
   -5.2768   -0.6977    0.0002 Cl  0  0  0  0  0  0  0  0  0  0  0  0
  1  2  1  0  0  0  0 
  3  2  1  0  0  0  0 
  2  4  2  0  0  0  0 
  5  3  1  0  0  0  0 
  3  6  2  0  0  0  0 
  7  4  1  0  0  0  0 
  4  8  1  0  0  0  0 
  5  9  1  0  0  0  0 
 10  6  1  0  0  0  0 
  6 11  1  0  0  0  0 
 11  8  2  0  0  0  0 
 12  9  2  0  0  0  0 
  9 13  1  0  0  0  0 
 10 12  1  0  0  0  0 
 14 11  1  0  0  0  0 
 12 15  1  0  0  0  0 
 16 13  1  0  0  0  0 
 13 17  2  0  0  0  0 
 18 15  1  0  0  0  0 
 15 19  2  0  0  0  0 
 19 17  1  0  0  0  0 
 20 19  1  0  0  0  0 
M  END
> <Name>
1,2,4,6,7,9-HEXACHLORODIBENZO-P-DIOXIN

> <Source>
Chemidplus3DMolFile

> <Tox>
-10.292

> <CAS>
39227-62-8

$$$$

  CDK

 19 21  0  0  0  0  0  0  0  0999 V2000
    0.7193    2.1578    0.0000 C   0  0  0  0  0  0  0  0  0  0  0  0
    1.9523    2.5688    0.0000 C   0  0  0  0  0  0  0  0  0  0  0  0
    0.0000    1.6955    0.0000 Cl  0  0  0  0  0  0  0  0  0  0  0  0
    1.0276    2.5688    0.0000 C   0  0  0  0  0  0  0  0  0  0  0  0
    2.0550    4.0587    0.0000 C   0  0  0  0  0  0  0  0  0  0  0  0
    2.9285    2.0550    0.0000 C   0  0  0  0  0  0  0  0  0  0  0  0
    1.4386    1.6955    0.0000 Cl  0  0  0  0  0  0  0  0  0  0  0  0
    2.2092    3.0312    0.0000 C   0  0  0  0  0  0  0  0  0  0  0  0
    0.3596    3.0312    0.0000 Cl  0  0  0  0  0  0  0  0  0  0  0  0
    2.5175    4.8737    0.0000 Cl  0  0  0  0  0  0  0  0  0  0  0  0
    1.4386    4.7733    0.0000 Cl  0  0  0  0  0  0  0  0  0  0  0  0
    3.1853    2.5175    0.0000 C   0  0  0  0  0  0  0  0  0  0  0  0
    3.4936    0.9762    0.0000 C   0  0  0  0  0  0  0  0  0  0  0  0
    2.6716    4.1033    0.0000 Cl  0  0  0  0  0  0  0  0  0  0  0  0
    4.4184    2.5175    0.0000 C   0  0  0  0  0  0  0  0  0  0  0  0
    4.5211    1.4899    0.0000 C   0  0  0  0  0  0  0  0  0  0  0  0
    3.4936    0.0000    0.0000 Cl  0  0  0  0  0  0  0  0  0  0  0  0
    4.8808    3.0312    0.0000 Cl  0  0  0  0  0  0  0  0  0  0  0  0
    5.3431    1.0276    0.0000 Cl  0  0  0  0  0  0  0  0  0  0  0  0
  2  1  1  0  0  0  0 
  1  3  1  0  0  0  0 
  1  4  2  0  0  0  0 
  2  5  1  0  0  0  0 
  6  2  1  0  0  0  0 
  2  7  1  0  0  0  0 
  8  4  1  0  0  0  0 
  4  9  1  0  0  0  0 
  8  5  1  0  0  0  0 
  5 10  1  0  0  0  0 
  5 11  1  0  0  0  0 
 12  6  1  0  0  0  0 
  6 13  1  6  0  0  0 
  8 12  1  0  0  0  0 
  8 14  1  0  0  0  0 
 12 15  1  6  0  0  0 
 16 13  1  0  0  0  0 
 13 17  1  0  0  0  0 
 15 16  1  0  0  0  0 
 15 18  1  0  0  0  0 
 16 19  1  0  0  0  0 
M  END
> <Name>
TRANS-NONACHLOR

> <Source>
NIST2DMolFile

> <Tox>
-6.000

> <CAS>
39765-80-5

$$$$

  CDK

 22 23  0  0  0  0  0  0  0  0999 V2000
    5.8223    3.5276    0.0000 O   0  0  0  0  0  0  0  0  0  0  0  0
    4.8855    2.4872    0.0000 C   0  0  0  0  0  0  0  0  0  0  0  0
    5.1223    4.7401    0.0000 C   0  0  0  0  0  0  0  0  0  0  0  0
    3.6066    3.0566    0.0000 N   0  0  0  0  0  0  0  0  0  0  0  0
    5.1766    1.1178    0.0000 O   0  0  0  0  0  0  0  0  0  0  0  0
    3.7529    4.4490    0.0000 N   0  0  0  0  0  0  0  0  0  0  0  0
    5.6917    6.0190    0.0000 C   0  0  0  0  0  0  0  0  0  0  0  0
    2.3941    2.3566    0.0000 C   0  0  0  0  0  0  0  0  0  0  0  0
    6.9707    5.4496    0.0000 C   0  0  0  0  0  0  0  0  0  0  0  0
    4.4128    6.5884    0.0000 C   0  0  0  0  0  0  0  0  0  0  0  0
    6.2612    7.2980    0.0000 C   0  0  0  0  0  0  0  0  0  0  0  0
    2.3941    0.9566    0.0000 C   0  0  0  0  0  0  0  0  0  0  0  0
    1.1817    3.0566    0.0000 C   0  0  0  0  0  0  0  0  0  0  0  0
    1.1817    0.2566    0.0000 C   0  0  0  0  0  0  0  0  0  0  0  0
    3.6066    0.2566    0.0000 Cl  0  0  0  0  0  0  0  0  0  0  0  0
   -0.0307    2.3566    0.0000 C   0  0  0  0  0  0  0  0  0  0  0  0
   -0.0307    0.9566    0.0000 C   0  0  0  0  0  0  0  0  0  0  0  0
   -1.2432    3.0566    0.0000 O   0  0  0  0  0  0  0  0  0  0  0  0
   -1.2432    0.2566    0.0000 Cl  0  0  0  0  0  0  0  0  0  0  0  0
   -2.4556    2.3566    0.0000 C   0  0  0  0  0  0  0  0  0  0  0  0
   -3.6681    3.0566    0.0000 C   0  0  0  0  0  0  0  0  0  0  0  0
   -4.8805    3.7566    0.0000 C   0  0  0  0  0  0  0  0  0  0  0  0
  2  1  1  0  0  0  0 
  3  1  1  0  0  0  0 
  4  2  1  0  0  0  0 
  2  5  2  0  0  0  0 
  3  6  2  0  0  0  0 
  3  7  1  0  0  0  0 
  6  4  1  0  0  0  0 
  4  8  1  0  0  0  0 
  9  7  1  0  0  0  0 
  7 10  1  0  0  0  0 
  7 11  1  0  0  0  0 
 12  8  1  0  0  0  0 
 13  8  2  0  0  0  0 
 14 12  2  0  0  0  0 
 12 15  1  0  0  0  0 
 13 16  1  0  0  0  0 
 17 14  1  0  0  0  0 
 16 17  2  0  0  0  0 
 16 18  1  0  0  0  0 
 17 19  1  0  0  0  0 
 18 20  1  0  0  0  0 
 21 20  1  0  0  0  0 
 22 21  3  0  0  0  0 
M  END
> <Name>
Oxadiargyl

> <Source>
IndexNet2DMolFile

> <Tox>
-7.726

> <CAS>
39807-15-3

$$$$

  CDK

 19 21  0  0  0  0  0  0  0  0999 V2000
    5.2119    3.0069    0.0000 Cl  0  0  0  0  0  0  0  0  0  0  0  0
    5.2119    2.0046    0.0000 C   0  0  0  0  0  0  0  0  0  0  0  0
    4.3098    1.5034    0.0000 C   0  0  0  0  0  0  0  0  0  0  0  0
    6.0638    1.5034    0.0000 C   0  0  0  0  0  0  0  0  0  0  0  0
    4.3098    0.5011    0.0000 C   0  0  0  0  0  0  0  0  0  0  0  0
    3.4579    2.0046    0.0000 O   0  0  0  0  0  0  0  0  0  0  0  0
    6.9158    2.0046    0.0000 Cl  0  0  0  0  0  0  0  0  0  0  0  0
    6.0638    0.5011    0.0000 C   0  0  0  0  0  0  0  0  0  0  0  0
    3.4579    0.0000    0.0000 O   0  0  0  0  0  0  0  0  0  0  0  0
    5.2119    0.0000    0.0000 C   0  0  0  0  0  0  0  0  0  0  0  0
    2.6059    1.5034    0.0000 C   0  0  0  0  0  0  0  0  0  0  0  0
    6.9158    0.0000    0.0000 Cl  0  0  0  0  0  0  0  0  0  0  0  0
    2.6059    0.5011    0.0000 C   0  0  0  0  0  0  0  0  0  0  0  0
    1.7039    2.0046    0.0000 C   0  0  0  0  0  0  0  0  0  0  0  0
    1.7039    0.0000    0.0000 C   0  0  0  0  0  0  0  0  0  0  0  0
    0.8519    1.5034    0.0000 C   0  0  0  0  0  0  0  0  0  0  0  0
    0.8519    0.5011    0.0000 C   0  0  0  0  0  0  0  0  0  0  0  0
    0.0000    2.0046    0.0000 Cl  0  0  0  0  0  0  0  0  0  0  0  0
    0.0000    0.0000    0.0000 Cl  0  0  0  0  0  0  0  0  0  0  0  0
  1  2  1  0  0  0  0 
  3  2  2  0  0  0  0 
  2  4  1  0  0  0  0 
  3  5  1  0  0  0  0 
  6  3  1  0  0  0  0 
  4  7  1  0  0  0  0 
  4  8  2  0  0  0  0 
  5  9  1  0  0  0  0 
 10  5  2  0  0  0  0 
 11  6  1  0  0  0  0 
  8 10  1  0  0  0  0 
  8 12  1  0  0  0  0 
  9 13  1  0  0  0  0 
 11 13  2  0  0  0  0 
 14 11  1  0  0  0  0 
 13 15  1  0  0  0  0 
 16 14  2  0  0  0  0 
 15 17  2  0  0  0  0 
 17 16  1  0  0  0  0 
 16 18  1  0  0  0  0 
 17 19  1  0  0  0  0 
M  END
> <Name>
1,2,3,7,8-PENTACHLORODIBENZO-P-DIOXIN

> <Source>
NIST2DMolFile

> <Tox>
-9.362

> <CAS>
40321-76-4

$$$$

  CDK

 20 20  0  0  0  0  0  0  0  0999 V2000
    3.4755   -2.0155    0.0000 C   0  0  0  0  0  0  0  0  0  0  0  0
    3.4755   -3.3565    0.0000 C   0  0  0  0  0  0  0  0  0  0  0  0
    4.6260   -1.3172    0.0000 N   0  0  0  0  0  0  0  0  0  0  0  0
    2.3170   -1.3648    0.0000 C   0  0  0  0  0  0  0  0  0  0  0  0
    2.3170   -4.0309    0.0000 C   0  0  0  0  0  0  0  0  0  0  0  0
    4.6260   -4.0150    0.0000 N   0  0  0  0  0  0  0  0  0  0  0  0
    5.7687   -1.9917    0.0000 O   0  0  0  0  0  0  0  0  0  0  0  0
    4.6260   -0.0000    0.0000 O   0  0  0  0  0  0  0  0  0  0  0  0
    1.1506   -2.0155    0.0000 C   0  0  0  0  0  0  0  0  0  0  0  0
    2.3170   -5.3481    0.0000 N   0  0  0  0  0  0  0  0  0  0  0  0
    1.1506   -3.3565    0.0000 C   0  0  0  0  0  0  0  0  0  0  0  0
    5.9432   -4.0150    0.0000 C   0  0  0  0  0  0  0  0  0  0  0  0
    0.0000   -1.3569    0.0000 C   0  0  0  0  0  0  0  0  0  0  0  0
    3.4596   -6.0067    0.0000 O   0  0  0  0  0  0  0  0  0  0  0  0
    1.1426   -6.0067    0.0000 O   0  0  0  0  0  0  0  0  0  0  0  0
    0.0000   -4.0309    0.0000 C   0  0  0  0  0  0  0  0  0  0  0  0
    6.5939   -2.8486    0.0000 C   0  0  0  0  0  0  0  0  0  0  0  0
    6.6177   -5.1418    0.0000 C   0  0  0  0  0  0  0  0  0  0  0  0
    7.9190   -2.8486    0.0000 C   0  0  0  0  0  0  0  0  0  0  0  0
    7.9349   -5.1418    0.0000 C   0  0  0  0  0  0  0  0  0  0  0  0
  1  2  1  0  0  0  0 
  1  3  1  0  0  0  0 
  1  4  2  0  0  0  0 
  5  2  2  0  0  0  0 
  2  6  1  0  0  0  0 
  3  7  1  0  0  0  0 
  3  8  2  0  0  0  0 
  4  9  1  0  0  0  0 
  5 10  1  0  0  0  0 
  5 11  1  0  0  0  0 
  6 12  1  0  0  0  0 
 11  9  2  0  0  0  0 
  9 13  1  0  0  0  0 
 10 14  1  0  0  0  0 
 10 15  2  0  0  0  0 
 11 16  1  0  0  0  0 
 12 17  1  0  0  0  0 
 12 18  1  0  0  0  0 
 17 19  1  0  0  0  0 
 18 20  1  0  0  0  0 
M  CHG  1   3   1
M  CHG  1   7  -1
M  CHG  1  10   1
M  CHG  1  14  -1
M  END
> <Name>
PENDIMETHALIN

> <Source>
DSSTox2DMolFile

> <Tox>
-4.523

> <CAS>
40487-42-1

$$$$

  CDK

 18 18  0  0  0  0  0  0  0  0999 V2000
    1.1537   -3.3320    0.0000 C   0  0  0  0  0  0  0  0  0  0  0  0
    0.0000   -3.9855    0.0000 Br  0  0  0  0  0  0  0  0  0  0  0  0
    2.3074   -3.9855    0.0000 C   0  0  0  0  0  0  0  0  0  0  0  0
    1.1537   -2.0008    0.0000 C   0  0  0  0  0  0  0  0  0  0  0  0
    3.4611   -3.3320    0.0000 C   0  0  0  0  0  0  0  0  0  0  0  0
    2.3074   -1.3312    0.0000 C   0  0  0  0  0  0  0  0  0  0  0  0
    3.4611   -2.0008    0.0000 C   0  0  0  0  0  0  0  0  0  0  0  0
    2.3074   -0.0000    0.0000 Cl  0  0  0  0  0  0  0  0  0  0  0  0
    4.6067   -1.3312    0.0000 O   0  0  0  0  0  0  0  0  0  0  0  0
    5.7604   -2.0008    0.0000 P   0  0  0  0  0  0  0  0  0  0  0  0
    6.9140   -2.6543    0.0000 S   0  0  0  0  0  0  0  0  0  0  0  0
    6.4219   -0.8471    0.0000 O   0  0  0  0  0  0  0  0  0  0  0  0
    5.0907   -3.1545    0.0000 O   0  0  0  0  0  0  0  0  0  0  0  0
    6.9140   -3.9855    0.0000 C   0  0  0  0  0  0  0  0  0  0  0  0
    5.7604   -4.3082    0.0000 C   0  0  0  0  0  0  0  0  0  0  0  0
    8.0677   -4.6551    0.0000 C   0  0  0  0  0  0  0  0  0  0  0  0
    5.0907   -5.4457    0.0000 C   0  0  0  0  0  0  0  0  0  0  0  0
    8.0677   -5.9863    0.0000 C   0  0  0  0  0  0  0  0  0  0  0  0
  1  2  1  0  0  0  0 
  1  3  1  0  0  0  0 
  1  4  2  0  0  0  0 
  5  3  2  0  0  0  0 
  4  6  1  0  0  0  0 
  7  5  1  0  0  0  0 
  6  8  1  0  0  0  0 
  6  7  2  0  0  0  0 
  7  9  1  0  0  0  0 
  9 10  1  0  0  0  0 
 10 11  1  0  0  0  0 
 10 12  2  0  0  0  0 
 10 13  1  0  0  0  0 
 11 14  1  0  0  0  0 
 13 15  1  0  0  0  0 
 14 16  1  0  0  0  0 
 15 17  1  0  0  0  0 
 16 18  1  0  0  0  0 
M  END
> <Name>
PROFENOFOS

> <Source>
DSSTox2DMolFile

> <Tox>
-6.046

> <CAS>
41198-08-7

$$$$

  CDK

 19 18  0  0  0  0  0  0  0  0999 V2000
   -4.0521   -0.3713    0.0000 C   0  0  0  0  0  0  0  0  0  0  0  0
   -4.8622   -0.5272    0.0000 C   0  0  0  0  0  0  0  0  0  0  0  0
   -4.2080    0.4389    0.0000 C   0  0  0  0  0  0  0  0  0  0  0  0
   -3.2420   -0.2154    0.0000 C   0  0  0  0  0  0  0  0  0  0  0  0
   -2.4318   -0.0594    0.0000 C   0  0  0  0  0  0  0  0  0  0  0  0
   -1.6217    0.0965    0.0000 C   0  0  0  0  0  0  0  0  0  0  0  0
   -0.8116    0.2524    0.0000 C   0  0  0  0  0  0  0  0  0  0  0  0
   -0.9675    1.0625    0.0000 C   0  0  0  0  0  0  0  0  0  0  0  0
   -0.0014    0.4083    0.0000 C   0  0  0  0  0  0  0  0  0  0  0  0
    0.8087    0.5642    0.0000 C   0  0  0  0  0  0  0  0  0  0  0  0
    1.3488   -0.0594    0.0000 C   0  0  0  0  0  0  0  0  0  0  0  0
    2.1589    0.0965    0.0000 C   0  0  0  0  0  0  0  0  0  0  0  0
    2.4290    0.8760    0.0000 C   0  0  0  0  0  0  0  0  0  0  0  0
    2.6990   -0.5272    0.0000 C   0  0  0  0  0  0  0  0  0  0  0  0
    3.5092   -0.3713    0.0000 C   0  0  0  0  0  0  0  0  0  0  0  0
    3.7792    0.4083    0.0000 O   0  0  0  0  0  0  0  0  0  0  0  0
    4.0493   -0.9949    0.0000 O   0  0  0  0  0  0  0  0  0  0  0  0
    4.8594   -0.8390    0.0000 C   0  0  0  0  0  0  0  0  0  0  0  0
    5.6695   -0.6831    0.0000 C   0  0  0  0  0  0  0  0  0  0  0  0
  1  2  1  0  0  0  0 
  1  3  1  0  0  0  0 
  1  4  1  0  0  0  0 
  4  5  1  0  0  0  0 
  5  6  1  0  0  0  0 
  6  7  1  0  0  0  0 
  7  8  1  0  0  0  0 
  7  9  1  0  0  0  0 
  9 10  1  0  0  0  0 
 10 11  2  0  0  0  0 
 11 12  1  0  0  0  0 
 12 13  1  0  0  0  0 
 12 14  2  0  0  0  0 
 14 15  1  0  0  0  0 
 15 16  2  0  0  0  0 
 15 17  1  0  0  0  0 
 17 18  1  0  0  0  0 
 18 19  1  0  0  0  0 
M  END
> <Name>
HYDROPRENE

> <Source>
Smiles

> <Tox>
-3.613

> <CAS>
41205-09-8

$$$$

  CDK

 16 17  0  0  0  0  0  0  0  0999 V2000
    1.4241   -1.6679    0.0000 Br  0  0  0  0  0  0  0  0  0  0  0  0
    1.4241   -0.8429    0.0000 C   0  0  0  0  0  0  0  0  0  0  0  0
    2.1386   -0.4304    0.0000 C   0  0  0  0  0  0  0  0  0  0  0  0
    0.7097   -0.4304    0.0000 C   0  0  0  0  0  0  0  0  0  0  0  0
    2.1386    0.3946    0.0000 C   0  0  0  0  0  0  0  0  0  0  0  0
    0.7097    0.3946    0.0000 C   0  0  0  0  0  0  0  0  0  0  0  0
   -0.0048   -0.8429    0.0000 O   0  0  0  0  0  0  0  0  0  0  0  0
    2.8531    0.8071    0.0000 Br  0  0  0  0  0  0  0  0  0  0  0  0
    1.4241    0.8071    0.0000 C   0  0  0  0  0  0  0  0  0  0  0  0
   -0.7193   -0.4304    0.0000 C   0  0  0  0  0  0  0  0  0  0  0  0
   -0.7193    0.3946    0.0000 C   0  0  0  0  0  0  0  0  0  0  0  0
   -1.4337   -0.8429    0.0000 C   0  0  0  0  0  0  0  0  0  0  0  0
   -1.4337    0.8071    0.0000 C   0  0  0  0  0  0  0  0  0  0  0  0
   -2.1482   -0.4304    0.0000 C   0  0  0  0  0  0  0  0  0  0  0  0
   -2.1482    0.3946    0.0000 C   0  0  0  0  0  0  0  0  0  0  0  0
   -2.8627    0.8071    0.0000 Br  0  0  0  0  0  0  0  0  0  0  0  0
  1  2  1  0  0  0  0 
  2  3  2  0  0  0  0 
  2  4  1  0  0  0  0 
  3  5  1  0  0  0  0 
  6  4  2  0  0  0  0 
  4  7  1  0  0  0  0 
  5  8  1  0  0  0  0 
  5  9  2  0  0  0  0 
  9  6  1  0  0  0  0 
  7 10  1  0  0  0  0 
 10 11  2  0  0  0  0 
 10 12  1  0  0  0  0 
 11 13  1  0  0  0  0 
 14 12  2  0  0  0  0 
 13 15  2  0  0  0  0 
 15 14  1  0  0  0  0 
 15 16  1  0  0  0  0 
M  END
> <Name>
2,4,4'-Tribromodiphenyl ether

> <Source>
Smiles

> <Tox>
-6.174

> <CAS>
41318-75-6

$$$$

  CDK

 16 17  0  0  0  0  0  0  0  0999 V2000
    4.2443    2.4253    0.0000 C   0  0  0  0  0  0  0  0  0  0  0  0
    5.6435    2.4253    0.0000 C   0  0  0  0  0  0  0  0  0  0  0  0
    3.5447    3.6380    0.0000 C   0  0  0  0  0  0  0  0  0  0  0  0
    3.5447    1.2127    0.0000 C   0  0  0  0  0  0  0  0  0  0  0  0
    6.3431    1.2127    0.0000 C   0  0  0  0  0  0  0  0  0  0  0  0
    6.3431    3.6380    0.0000 C   0  0  0  0  0  0  0  0  0  0  0  0
    2.0988    3.6380    0.0000 C   0  0  0  0  0  0  0  0  0  0  0  0
    4.2443    4.8506    0.0000 Cl  0  0  0  0  0  0  0  0  0  0  0  0
    2.0988    1.2127    0.0000 C   0  0  0  0  0  0  0  0  0  0  0  0
    7.7424    1.2127    0.0000 C   0  0  0  0  0  0  0  0  0  0  0  0
    7.7424    3.6380    0.0000 C   0  0  0  0  0  0  0  0  0  0  0  0
    5.6435    4.8506    0.0000 Cl  0  0  0  0  0  0  0  0  0  0  0  0
    1.3992    2.4253    0.0000 C   0  0  0  0  0  0  0  0  0  0  0  0
    8.4420    2.4253    0.0000 C   0  0  0  0  0  0  0  0  0  0  0  0
    8.4420    0.0000    0.0000 Cl  0  0  0  0  0  0  0  0  0  0  0  0
    0.0000    2.4253    0.0000 Cl  0  0  0  0  0  0  0  0  0  0  0  0
  1  2  1  0  0  0  0 
  1  3  2  0  0  0  0 
  1  4  1  0  0  0  0 
  2  5  2  0  0  0  0 
  2  6  1  0  0  0  0 
  3  7  1  0  0  0  0 
  3  8  1  0  0  0  0 
  9  4  2  0  0  0  0 
  5 10  1  0  0  0  0 
 11  6  2  0  0  0  0 
  6 12  1  0  0  0  0 
  7 13  2  0  0  0  0 
 13  9  1  0  0  0  0 
 10 14  2  0  0  0  0 
 10 15  1  0  0  0  0 
 14 11  1  0  0  0  0 
 13 16  1  0  0  0  0 
M  END
> <Name>
2,2',4,5'-TETRACHLOROBIPHENYL

> <Source>
IndexNet2DMolFile

> <Tox>
-5.072

> <CAS>
41464-40-8

$$$$

  CDK

 16 17  0  0  0  0  0  0  0  0999 V2000
    1.7748   -0.8983    4.4101 Cl  0  0  0  0  0  0  0  0  0  0  0  0
    1.8497   -0.9689    2.6836 C   0  0  0  0  0  0  0  0  0  0  0  0
    2.9185   -1.5646    2.0141 C   0  0  0  0  0  0  0  0  0  0  0  0
    0.7994   -0.4058    1.9588 C   0  0  0  0  0  0  0  0  0  0  0  0
    4.0308   -2.1622    2.7287 C   0  0  0  0  0  0  0  0  0  0  0  0
    2.9371   -1.5972    0.6197 C   0  0  0  0  0  0  0  0  0  0  0  0
    0.8178   -0.4385    0.5644 C   0  0  0  0  0  0  0  0  0  0  0  0
    5.1490   -1.3919    3.0574 C   0  0  0  0  0  0  0  0  0  0  0  0
    3.9887   -3.5107    3.0913 C   0  0  0  0  0  0  0  0  0  0  0  0
    1.8867   -1.0341   -0.1051 C   0  0  0  0  0  0  0  0  0  0  0  0
    5.2680    0.2836    2.6394 Cl  0  0  0  0  0  0  0  0  0  0  0  0
    6.2184   -1.9665    3.7444 C   0  0  0  0  0  0  0  0  0  0  0  0
    2.6360   -4.5234    2.7161 Cl  0  0  0  0  0  0  0  0  0  0  0  0
    5.0581   -4.0853    3.7783 C   0  0  0  0  0  0  0  0  0  0  0  0
    1.9086   -1.0738   -1.8256 Cl  0  0  0  0  0  0  0  0  0  0  0  0
    6.1730   -3.3131    4.1050 C   0  0  0  0  0  0  0  0  0  0  0  0
  1  2  1  0  0  0  0 
  3  2  2  0  0  0  0 
  2  4  1  0  0  0  0 
  3  5  1  0  0  0  0 
  3  6  1  0  0  0  0 
  4  7  2  0  0  0  0 
  5  8  2  0  0  0  0 
  5  9  1  0  0  0  0 
  6 10  2  0  0  0  0 
 10  7  1  0  0  0  0 
 11  8  1  0  0  0  0 
  8 12  1  0  0  0  0 
 13  9  1  0  0  0  0 
  9 14  2  0  0  0  0 
 15 10  1  0  0  0  0 
 12 16  2  0  0  0  0 
 14 16  1  0  0  0  0 
M  END
> <Name>
2,2',5,6'-TETRACHLOROBIPHENYL

> <Source>
Chemidplus3DMolFile

> <Tox>
-4.648

> <CAS>
41464-41-9

$$$$

  CDK

 21 21  0  0  0  0  0  0  0  0999 V2000
    5.2347    3.5068    0.0000 N   0  0  0  0  0  0  0  0  0  0  0  0
    5.2347    4.5232    0.0000 C   0  0  0  0  0  0  0  0  0  0  0  0
    4.3707    3.0494    0.0000 C   0  0  0  0  0  0  0  0  0  0  0  0
    4.3707    5.0314    0.0000 N   0  0  0  0  0  0  0  0  0  0  0  0
    6.0987    5.0314    0.0000 N   0  0  0  0  0  0  0  0  0  0  0  0
    3.5068    3.5068    0.0000 C   0  0  0  0  0  0  0  0  0  0  0  0
    4.3707    2.0329    0.0000 O   0  0  0  0  0  0  0  0  0  0  0  0
    3.5068    4.5232    0.0000 C   0  0  0  0  0  0  0  0  0  0  0  0
    7.0135    4.5232    0.0000 C   0  0  0  0  0  0  0  0  0  0  0  0
    2.6428    3.0494    0.0000 C   0  0  0  0  0  0  0  0  0  0  0  0
    5.2347    1.5247    0.0000 S   0  0  0  0  0  0  0  0  0  0  0  0
    2.6428    4.9806    0.0000 C   0  0  0  0  0  0  0  0  0  0  0  0
    7.8267    5.0314    0.0000 C   0  0  0  0  0  0  0  0  0  0  0  0
    1.7280    3.5068    0.0000 C   0  0  0  0  0  0  0  0  0  0  0  0
    4.7265    0.6607    0.0000 O   0  0  0  0  0  0  0  0  0  0  0  0
    5.7430    2.3887    0.0000 O   0  0  0  0  0  0  0  0  0  0  0  0
    6.0987    1.0165    0.0000 N   0  0  0  0  0  0  0  0  0  0  0  0
    0.8640    3.1002    0.0000 C   0  0  0  0  0  0  0  0  0  0  0  0
    7.0135    1.5247    0.0000 C   0  0  0  0  0  0  0  0  0  0  0  0
    6.0987    0.0000    0.0000 C   0  0  0  0  0  0  0  0  0  0  0  0
    0.0000    3.5576    0.0000 C   0  0  0  0  0  0  0  0  0  0  0  0
  2  1  2  0  0  0  0 
  1  3  1  0  0  0  0 
  4  2  1  0  0  0  0 
  2  5  1  0  0  0  0 
  3  6  2  0  0  0  0 
  3  7  1  0  0  0  0 
  8  4  2  0  0  0  0 
  5  9  1  0  0  0  0 
  6  8  1  0  0  0  0 
  6 10  1  0  0  0  0 
  7 11  1  0  0  0  0 
  8 12  1  0  0  0  0 
  9 13  1  0  0  0  0 
 10 14  1  0  0  0  0 
 11 15  2  0  0  0  0 
 11 16  2  0  0  0  0 
 11 17  1  0  0  0  0 
 14 18  1  0  0  0  0 
 17 19  1  0  0  0  0 
 17 20  1  0  0  0  0 
 18 21  1  0  0  0  0 
M  END
> <Name>
BUPIRIMATE

> <Source>
NIST2DMolFile

> <Tox>
-6.125

> <CAS>
41483-43-6

$$$$

  CDK

 13 15  0  0  0  0  0  0  0  0999 V2000
   -0.7412    2.0499   -0.0002 S   0  0  0  0  0  0  0  0  0  0  0  0
   -1.6708    0.5748    0.0002 C   0  0  0  0  0  0  0  0  0  0  0  0
    0.7429    1.0764   -0.0001 C   0  0  0  0  0  0  0  0  0  0  0  0
   -0.8769   -0.6058   -0.0001 N   0  0  0  0  0  0  0  0  0  0  0  0
   -2.9533    0.1615    0.0004 N   0  0  0  0  0  0  0  0  0  0  0  0
    0.5254   -0.3254   -0.0001 C   0  0  0  0  0  0  0  0  0  0  0  0
    2.0411    1.5704    0.0000 C   0  0  0  0  0  0  0  0  0  0  0  0
   -1.7367   -1.7002   -0.0003 C   0  0  0  0  0  0  0  0  0  0  0  0
   -2.9815   -1.1759    0.0001 N   0  0  0  0  0  0  0  0  0  0  0  0
    1.5895   -1.2308    0.0001 C   0  0  0  0  0  0  0  0  0  0  0  0
    3.1040    0.6725    0.0001 C   0  0  0  0  0  0  0  0  0  0  0  0
    2.8833   -0.7016    0.0002 C   0  0  0  0  0  0  0  0  0  0  0  0
    1.3850   -2.7012   -0.0001 C   0  0  0  0  0  0  0  0  0  0  0  0
  1  2  1  0  0  0  0 
  1  3  1  0  0  0  0 
  2  4  1  0  0  0  0 
  2  5  2  0  0  0  0 
  6  3  2  0  0  0  0 
  3  7  1  0  0  0  0 
  4  6  1  0  0  0  0 
  4  8  1  0  0  0  0 
  9  5  1  0  0  0  0 
  6 10  1  0  0  0  0 
 11  7  2  0  0  0  0 
  9  8  2  0  0  0  0 
 10 12  2  0  0  0  0 
 10 13  1  0  0  0  0 
 12 11  1  0  0  0  0 
M  END
> <Name>
TRICYCLAZOLE

> <Source>
DougDB3DMolFile

> <Tox>
-6.699

> <CAS>
41814-78-2

$$$$

  CDK

 21 20  0  0  0  0  0  0  0  0999 V2000
    0.0000    0.0000    0.0000 C   0  0  0  0  0  0  0  0  0  0  0  0
    0.8498    0.4999    0.0000 C   0  0  0  0  0  0  0  0  0  0  0  0
    1.7497    0.0500    0.0000 C   0  0  0  0  0  0  0  0  0  0  0  0
    2.5995    0.5499    0.0000 C   0  0  0  0  0  0  0  0  0  0  0  0
    3.4494    0.0500    0.0000 C   0  0  0  0  0  0  0  0  0  0  0  0
    4.3492    0.5499    0.0000 C   0  0  0  0  0  0  0  0  0  0  0  0
    5.1991    0.0500    0.0000 C   0  0  0  0  0  0  0  0  0  0  0  0
    6.0489    0.5499    0.0000 C   0  0  0  0  0  0  0  0  0  0  0  0
    6.9487    0.0500    0.0000 C   0  0  0  0  0  0  0  0  0  0  0  0
    7.7986    0.5499    0.0000 C   0  0  0  0  0  0  0  0  0  0  0  0
    8.6484    0.0500    0.0000 C   0  0  0  0  0  0  0  0  0  0  0  0
    9.5483    0.5499    0.0000 C   0  0  0  0  0  0  0  0  0  0  0  0
   10.3981    0.0500    0.0000 C   0  0  0  0  0  0  0  0  0  0  0  0
   11.2480    0.5499    0.0000 C   0  0  0  0  0  0  0  0  0  0  0  0
   12.1478    0.0500    0.0000 C   0  0  0  0  0  0  0  0  0  0  0  0
   12.9977    0.5499    0.0000 C   0  0  0  0  0  0  0  0  0  0  0  0
   13.8475    0.0500    0.0000 C   0  0  0  0  0  0  0  0  0  0  0  0
   14.7473    0.5499    0.0000 C   0  0  0  0  0  0  0  0  0  0  0  0
   15.5972    0.0500    0.0000 C   0  0  0  0  0  0  0  0  0  0  0  0
   16.4470    0.5499    0.0000 C   0  0  0  0  0  0  0  0  0  0  0  0
   17.3469    0.0500    0.0000 Cl  0  0  0  0  0  0  0  0  0  0  0  0
  1  2  1  0  0  0  0 
  2  3  1  0  0  0  0 
  3  4  1  0  0  0  0 
  4  5  1  0  0  0  0 
  5  6  1  0  0  0  0 
  6  7  1  0  0  0  0 
  7  8  1  0  0  0  0 
  8  9  1  0  0  0  0 
  9 10  1  0  0  0  0 
 10 11  1  0  0  0  0 
 11 12  1  0  0  0  0 
 12 13  1  0  0  0  0 
 13 14  1  0  0  0  0 
 14 15  1  0  0  0  0 
 15 16  1  0  0  0  0 
 16 17  1  0  0  0  0 
 17 18  1  0  0  0  0 
 18 19  1  0  0  0  0 
 19 20  1  0  0  0  0 
 20 21  1  0  0  0  0 
M  END
> <Name>
1-CHLOROEICOSANE

> <Source>
NIST2DMolFile

> <Tox>
-5.620

> <CAS>
42217-02-7

$$$$

  CDK

 22 23  0  0  0  0  0  0  0  0999 V2000
   -2.4749   -1.5339   -0.6720 C   0  0  0  0  0  0  0  0  0  0  0  0
   -2.1533   -0.2049   -0.0582 C   0  0  0  0  0  0  0  0  0  0  0  0
   -2.8115   -1.7340   -1.8202 O   0  0  0  0  0  0  0  0  0  0  0  0
   -2.2984   -2.5711    0.1965 O   0  0  0  0  0  0  0  0  0  0  0  0
   -3.1414    0.7323    0.2717 C   0  0  0  0  0  0  0  0  0  0  0  0
   -0.8077    0.0923    0.1379 C   0  0  0  0  0  0  0  0  0  0  0  0
   -2.6417   -3.8720   -0.2362 C   0  0  0  0  0  0  0  0  0  0  0  0
   -2.7614    1.9788    0.7913 C   0  0  0  0  0  0  0  0  0  0  0  0
   -4.6069    0.4543    0.0952 N   0  0  0  0  0  0  0  0  0  0  0  0
   -0.4467    1.3360    0.6681 C   0  0  0  0  0  0  0  0  0  0  0  0
   -1.4269    2.2865    0.9952 C   0  0  0  0  0  0  0  0  0  0  0  0
   -5.0262   -0.6702    0.2747 O   0  0  0  0  0  0  0  0  0  0  0  0
   -5.3455    1.3724   -0.1957 O   0  0  0  0  0  0  0  0  0  0  0  0
    0.8443    1.7555    0.9021 O   0  0  0  0  0  0  0  0  0  0  0  0
    1.8628    0.8372    0.6535 C   0  0  0  0  0  0  0  0  0  0  0  0
    2.7260    1.0865   -0.4226 C   0  0  0  0  0  0  0  0  0  0  0  0
    2.1051   -0.2200    1.5380 C   0  0  0  0  0  0  0  0  0  0  0  0
    3.8369    0.2673   -0.6149 C   0  0  0  0  0  0  0  0  0  0  0  0
    2.4528    2.3613   -1.4784 Cl  0  0  0  0  0  0  0  0  0  0  0  0
    3.2125   -1.0335    1.3375 C   0  0  0  0  0  0  0  0  0  0  0  0
    4.0691   -0.7861    0.2645 C   0  0  0  0  0  0  0  0  0  0  0  0
    5.4083   -1.7765    0.0307 Cl  0  0  0  0  0  0  0  0  0  0  0  0
  1  2  1  0  0  0  0 
  1  3  2  0  0  0  0 
  1  4  1  0  0  0  0 
  2  5  1  0  0  0  0 
  2  6  2  0  0  0  0 
  4  7  1  0  0  0  0 
  5  8  2  0  0  0  0 
  5  9  1  0  0  0  0 
 10  6  1  0  0  0  0 
  8 11  1  0  0  0  0 
  9 12  2  0  0  0  0 
  9 13  1  0  0  0  0 
 11 10  2  0  0  0  0 
 10 14  1  0  0  0  0 
 14 15  1  0  0  0  0 
 15 16  1  0  0  0  0 
 15 17  2  0  0  0  0 
 16 18  2  0  0  0  0 
 16 19  1  0  0  0  0 
 20 17  1  0  0  0  0 
 18 21  1  0  0  0  0 
 21 20  2  0  0  0  0 
 21 22  1  0  0  0  0 
M  CHG  1   9   1
M  CHG  1  13  -1
M  END
> <Name>
BIFENOX

> <Source>
DougDB3DMolFile

> <Tox>
-7.000

> <CAS>
42576-02-3

$$$$

  CDK

 20 21  0  0  0  0  0  0  0  0999 V2000
    6.0633    4.1977    0.0000 O   0  0  0  0  0  0  0  0  0  0  0  0
    6.0633    2.7984    0.0000 C   0  0  0  0  0  0  0  0  0  0  0  0
    4.8506    2.0988    0.0000 N   0  0  0  0  0  0  0  0  0  0  0  0
    7.2760    2.0988    0.0000 N   0  0  0  0  0  0  0  0  0  0  0  0
    3.6380    2.7984    0.0000 C   0  0  0  0  0  0  0  0  0  0  0  0
    8.4886    2.7984    0.0000 C   0  0  0  0  0  0  0  0  0  0  0  0
    3.6380    4.1977    0.0000 C   0  0  0  0  0  0  0  0  0  0  0  0
    2.4253    2.0988    0.0000 C   0  0  0  0  0  0  0  0  0  0  0  0
    9.7013    2.0988    0.0000 C   0  0  0  0  0  0  0  0  0  0  0  0
    7.7890    4.0111    0.0000 C   0  0  0  0  0  0  0  0  0  0  0  0
    9.1882    4.0111    0.0000 C   0  0  0  0  0  0  0  0  0  0  0  0
    2.4253    4.8973    0.0000 C   0  0  0  0  0  0  0  0  0  0  0  0
    1.2127    2.7984    0.0000 C   0  0  0  0  0  0  0  0  0  0  0  0
    9.7013    0.6996    0.0000 C   0  0  0  0  0  0  0  0  0  0  0  0
   10.9139    2.7984    0.0000 C   0  0  0  0  0  0  0  0  0  0  0  0
    1.2127    4.1977    0.0000 C   0  0  0  0  0  0  0  0  0  0  0  0
   10.9139    0.0000    0.0000 C   0  0  0  0  0  0  0  0  0  0  0  0
   12.1266    2.0988    0.0000 C   0  0  0  0  0  0  0  0  0  0  0  0
    0.0000    4.8973    0.0000 C   0  0  0  0  0  0  0  0  0  0  0  0
   12.1266    0.6996    0.0000 C   0  0  0  0  0  0  0  0  0  0  0  0
  1  2  2  0  0  0  0 
  2  3  1  0  0  0  0 
  2  4  1  0  0  0  0 
  3  5  1  0  0  0  0 
  4  6  1  0  0  0  0 
  5  7  2  0  0  0  0 
  5  8  1  0  0  0  0 
  6  9  1  0  0  0  0 
  6 10  1  0  0  0  0 
  6 11  1  0  0  0  0 
  7 12  1  0  0  0  0 
 13  8  2  0  0  0  0 
  9 14  2  0  0  0  0 
  9 15  1  0  0  0  0 
 12 16  2  0  0  0  0 
 16 13  1  0  0  0  0 
 14 17  1  0  0  0  0 
 18 15  2  0  0  0  0 
 16 19  1  0  0  0  0 
 17 20  2  0  0  0  0 
 20 18  1  0  0  0  0 
M  END
> <Name>
Daimuron

> <Source>
IndexNet2DMolFile

> <Tox>
-8.470

> <CAS>
42609-52-9

$$$$

  CDK

 24 25  0  0  0  0  0  0  0  0999 V2000
   10.3860   -4.0024    0.0000 N   0  0  0  0  0  0  0  0  0  0  0  0
    9.2081   -3.3311    0.0000 C   0  0  0  0  0  0  0  0  0  0  0  0
   10.3860   -5.3323    0.0000 O   0  0  0  0  0  0  0  0  0  0  0  0
   11.5259   -3.3438    0.0000 O   0  0  0  0  0  0  0  0  0  0  0  0
    9.2081   -1.9885    0.0000 C   0  0  0  0  0  0  0  0  0  0  0  0
    8.0555   -3.9897    0.0000 C   0  0  0  0  0  0  0  0  0  0  0  0
    8.0555   -1.3299    0.0000 C   0  0  0  0  0  0  0  0  0  0  0  0
   10.3860   -1.3173    0.0000 O   0  0  0  0  0  0  0  0  0  0  0  0
    6.9156   -3.3311    0.0000 C   0  0  0  0  0  0  0  0  0  0  0  0
    6.9156   -1.9885    0.0000 C   0  0  0  0  0  0  0  0  0  0  0  0
   11.5259   -1.9759    0.0000 C   0  0  0  0  0  0  0  0  0  0  0  0
    5.7756   -1.3299    0.0000 O   0  0  0  0  0  0  0  0  0  0  0  0
   12.6659   -1.3426    0.0000 C   0  0  0  0  0  0  0  0  0  0  0  0
    4.6230   -1.9885    0.0000 C   0  0  0  0  0  0  0  0  0  0  0  0
    3.4958   -1.3299    0.0000 C   0  0  0  0  0  0  0  0  0  0  0  0
    4.6230   -3.3311    0.0000 C   0  0  0  0  0  0  0  0  0  0  0  0
    2.3432   -1.9885    0.0000 C   0  0  0  0  0  0  0  0  0  0  0  0
    3.4958   -0.0000    0.0000 Cl  0  0  0  0  0  0  0  0  0  0  0  0
    3.4958   -3.9897    0.0000 C   0  0  0  0  0  0  0  0  0  0  0  0
    2.3432   -3.3311    0.0000 C   0  0  0  0  0  0  0  0  0  0  0  0
    1.1779   -4.0024    0.0000 C   0  0  0  0  0  0  0  0  0  0  0  0
    0.0000   -4.6610    0.0000 F   0  0  0  0  0  0  0  0  0  0  0  0
    0.4940   -2.8372    0.0000 F   0  0  0  0  0  0  0  0  0  0  0  0
    1.8366   -5.1550    0.0000 F   0  0  0  0  0  0  0  0  0  0  0  0
  1  2  1  0  0  0  0 
  1  3  1  0  0  0  0 
  1  4  2  0  0  0  0 
  2  5  1  0  0  0  0 
  2  6  2  0  0  0  0 
  5  7  2  0  0  0  0 
  5  8  1  0  0  0  0 
  6  9  1  0  0  0  0 
  7 10  1  0  0  0  0 
  8 11  1  0  0  0  0 
 10  9  2  0  0  0  0 
 12 10  1  0  0  0  0 
 11 13  1  0  0  0  0 
 14 12  1  0  0  0  0 
 14 15  1  0  0  0  0 
 14 16  2  0  0  0  0 
 15 17  2  0  0  0  0 
 15 18  1  0  0  0  0 
 19 16  1  0  0  0  0 
 20 17  1  0  0  0  0 
 20 19  2  0  0  0  0 
 21 20  1  0  0  0  0 
 21 22  1  0  0  0  0 
 21 23  1  0  0  0  0 
 21 24  1  0  0  0  0 
M  CHG  1   1   1
M  CHG  1   3  -1
M  END
> <Name>
OXYFLUORFEN

> <Source>
DSSTox2DMolFile

> <Tox>
-6.699

> <CAS>
42874-03-3

$$$$

  CDK

 20 21  0  0  0  0  0  0  0  0999 V2000
    3.4354   -2.0078    0.0000 C   0  0  0  0  0  0  0  0  0  0  0  0
    3.4354   -3.3617    0.0000 N   0  0  0  0  0  0  0  0  0  0  0  0
    2.2933   -1.3355    0.0000 C   0  0  0  0  0  0  0  0  0  0  0  0
    4.6143   -1.3355    0.0000 O   0  0  0  0  0  0  0  0  0  0  0  0
    4.4946   -4.1538    0.0000 N   0  0  0  0  0  0  0  0  0  0  0  0
    2.3578   -4.1538    0.0000 C   0  0  0  0  0  0  0  0  0  0  0  0
    1.1513   -2.0078    0.0000 C   0  0  0  0  0  0  0  0  0  0  0  0
    2.2933   -0.0000    0.0000 O   0  0  0  0  0  0  0  0  0  0  0  0
    5.7563   -2.0170    0.0000 C   0  0  0  0  0  0  0  0  0  0  0  0
    4.1077   -5.4064    0.0000 C   0  0  0  0  0  0  0  0  0  0  0  0
    2.7907   -5.4064    0.0000 N   0  0  0  0  0  0  0  0  0  0  0  0
    1.8144   -3.1499    0.0000 C   0  0  0  0  0  0  0  0  0  0  0  0
    0.4789   -0.8381    0.0000 C   0  0  0  0  0  0  0  0  0  0  0  0
    0.0000   -2.6617    0.0000 C   0  0  0  0  0  0  0  0  0  0  0  0
    5.7563   -3.3341    0.0000 C   0  0  0  0  0  0  0  0  0  0  0  0
    6.8984   -1.3631    0.0000 C   0  0  0  0  0  0  0  0  0  0  0  0
    6.8984   -4.0064    0.0000 C   0  0  0  0  0  0  0  0  0  0  0  0
    8.0589   -2.0170    0.0000 C   0  0  0  0  0  0  0  0  0  0  0  0
    8.0589   -3.3341    0.0000 C   0  0  0  0  0  0  0  0  0  0  0  0
    9.2101   -4.0340    0.0000 Cl  0  0  0  0  0  0  0  0  0  0  0  0
  1  2  1  0  0  0  0 
  1  3  1  0  0  0  0 
  1  4  1  0  0  0  0 
  2  5  1  0  0  0  0 
  2  6  1  0  0  0  0 
  3  7  1  0  0  0  0 
  3  8  2  0  0  0  0 
  4  9  1  0  0  0  0 
  5 10  2  0  0  0  0 
 11  6  2  0  0  0  0 
  7 12  1  0  0  0  0 
  7 13  1  0  0  0  0 
  7 14  1  0  0  0  0 
  9 15  1  0  0  0  0 
  9 16  2  0  0  0  0 
 11 10  1  0  0  0  0 
 15 17  2  0  0  0  0 
 16 18  1  0  0  0  0 
 19 17  1  0  0  0  0 
 19 18  2  0  0  0  0 
 19 20  1  0  0  0  0 
M  END
> <Name>
TRIADIMEFON

> <Source>
DSSTox2DMolFile

> <Tox>
-7.824

> <CAS>
43121-43-3

$$$$

  CDK

 13 14  0  0  0  0  0  0  0  0999 V2000
   -0.7114   -2.8755    0.0009 Cl  0  0  0  0  0  0  0  0  0  0  0  0
   -0.5837   -1.1308    0.0003 C   0  0  0  0  0  0  0  0  0  0  0  0
    0.6751   -0.5081    0.0002 C   0  0  0  0  0  0  0  0  0  0  0  0
   -1.7538   -0.3711   -0.0001 C   0  0  0  0  0  0  0  0  0  0  0  0
    0.7480    0.9053   -0.0001 C   0  0  0  0  0  0  0  0  0  0  0  0
    1.8631   -1.2571    0.0003 C   0  0  0  0  0  0  0  0  0  0  0  0
   -3.3166   -1.1412   -0.0018 Cl  0  0  0  0  0  0  0  0  0  0  0  0
   -1.6822    1.0188   -0.0004 C   0  0  0  0  0  0  0  0  0  0  0  0
   -0.4401    1.6542   -0.0004 C   0  0  0  0  0  0  0  0  0  0  0  0
    2.0067    1.5281   -0.0004 C   0  0  0  0  0  0  0  0  0  0  0  0
    3.1052   -0.6216    0.0000 C   0  0  0  0  0  0  0  0  0  0  0  0
   -3.0870    2.0308    0.0016 Cl  0  0  0  0  0  0  0  0  0  0  0  0
    3.1768    0.7683   -0.0003 C   0  0  0  0  0  0  0  0  0  0  0  0
  1  2  1  0  0  0  0 
  3  2  1  0  0  0  0 
  2  4  2  0  0  0  0 
  3  5  1  0  0  0  0 
  3  6  2  0  0  0  0 
  7  4  1  0  0  0  0 
  4  8  1  0  0  0  0 
  5  9  1  0  0  0  0 
  5 10  2  0  0  0  0 
  6 11  1  0  0  0  0 
 12  8  1  0  0  0  0 
  9  8  2  0  0  0  0 
 10 13  1  0  0  0  0 
 11 13  2  0  0  0  0 
M  END
> <Name>
1,2,3-TRICHLORONAPHTHALENE

> <Source>
Chemidplus3DMolFile

> <Tox>
-4.699

> <CAS>
50402-52-3

$$$$

  CDK

 18 18  0  0  0  0  0  0  0  0999 V2000
    0.3802    1.2488    0.5907 C   0  0  0  0  0  0  0  0  0  0  0  0
   -0.4413    0.0013    0.4181 C   0  0  0  0  0  0  0  0  0  0  0  0
    0.3177    2.0680    1.4818 O   0  0  0  0  0  0  0  0  0  0  0  0
    1.2842    1.3601   -0.4204 O   0  0  0  0  0  0  0  0  0  0  0  0
    0.3802   -1.2448    0.6016 C   0  0  0  0  0  0  0  0  0  0  0  0
   -1.7520    0.0003    0.1093 C   0  0  0  0  0  0  0  0  0  0  0  0
    2.4215    2.2326   -0.3277 C   0  0  0  0  0  0  0  0  0  0  0  0
    0.3244   -2.0480    1.5075 O   0  0  0  0  0  0  0  0  0  0  0  0
    1.2759   -1.3738   -0.4151 O   0  0  0  0  0  0  0  0  0  0  0  0
   -2.6690   -1.4824   -0.1850 S   0  0  0  0  0  0  0  0  0  0  0  0
   -2.7016    1.4809   -0.0722 S   0  0  0  0  0  0  0  0  0  0  0  0
    3.1725    1.9576   -1.6317 C   0  0  0  0  0  0  0  0  0  0  0  0
    3.3187    1.9273    0.8666 C   0  0  0  0  0  0  0  0  0  0  0  0
    2.4197   -2.2368   -0.3130 C   0  0  0  0  0  0  0  0  0  0  0  0
   -4.3233   -0.7330   -0.3511 C   0  0  0  0  0  0  0  0  0  0  0  0
   -4.2247    0.7277   -0.7344 C   0  0  0  0  0  0  0  0  0  0  0  0
    3.3174   -1.9124    0.8758 C   0  0  0  0  0  0  0  0  0  0  0  0
    3.1675   -1.9721   -1.6210 C   0  0  0  0  0  0  0  0  0  0  0  0
  1  2  1  0  0  0  0 
  1  3  2  0  0  0  0 
  1  4  1  0  0  0  0 
  2  5  1  0  0  0  0 
  2  6  2  0  0  0  0 
  4  7  1  0  0  0  0 
  5  8  2  0  0  0  0 
  5  9  1  0  0  0  0 
 10  6  1  0  0  0  0 
  6 11  1  0  0  0  0 
  7 12  1  0  0  0  0 
  7 13  1  0  0  0  0 
  9 14  1  0  0  0  0 
 10 15  1  0  0  0  0 
 11 16  1  0  0  0  0 
 14 17  1  0  0  0  0 
 14 18  1  0  0  0  0 
 16 15  1  0  0  0  0 
M  END
> <Name>
IPT (ISOPROTHIOLANE)

> <Source>
DougDB3DMolFile

> <Tox>
-1.845

> <CAS>
50512-35-1

$$$$

  CDK

 17 17  0  0  0  0  0  0  0  0999 V2000
    4.0052    3.4545    0.0000 C   0  0  0  0  0  0  0  0  0  0  0  0
    4.5059    2.6034    0.0000 C   0  0  0  0  0  0  0  0  0  0  0  0
    5.5072    2.6034    0.0000 C   0  0  0  0  0  0  0  0  0  0  0  0
    4.0052    1.7022    0.0000 C   0  0  0  0  0  0  0  0  0  0  0  0
    6.0078    1.7022    0.0000 C   0  0  0  0  0  0  0  0  0  0  0  0
    4.5059    0.8511    0.0000 C   0  0  0  0  0  0  0  0  0  0  0  0
    3.0039    1.7022    0.0000 N   0  0  0  0  0  0  0  0  0  0  0  0
    5.5072    0.8511    0.0000 C   0  0  0  0  0  0  0  0  0  0  0  0
    4.0052    0.0000    0.0000 C   0  0  0  0  0  0  0  0  0  0  0  0
    2.5033    0.8511    0.0000 C   0  0  0  0  0  0  0  0  0  0  0  0
    2.5033    2.6034    0.0000 C   0  0  0  0  0  0  0  0  0  0  0  0
    1.5020    0.8511    0.0000 C   0  0  0  0  0  0  0  0  0  0  0  0
    3.0039    3.4545    0.0000 C   0  0  0  0  0  0  0  0  0  0  0  0
    1.5020    2.6034    0.0000 O   0  0  0  0  0  0  0  0  0  0  0  0
    1.0013    0.0000    0.0000 O   0  0  0  0  0  0  0  0  0  0  0  0
    2.5033    4.3056    0.0000 Cl  0  0  0  0  0  0  0  0  0  0  0  0
    0.0000    0.0000    0.0000 C   0  0  0  0  0  0  0  0  0  0  0  0
  1  2  1  0  0  0  0 
  3  2  2  0  0  0  0 
  2  4  1  0  0  0  0 
  5  3  1  0  0  0  0 
  4  6  2  0  0  0  0 
  4  7  1  0  0  0  0 
  8  5  2  0  0  0  0 
  9  6  1  0  0  0  0 
  6  8  1  0  0  0  0 
  7 10  1  0  0  0  0 
  7 11  1  0  0  0  0 
 12 10  1  0  0  0  0 
 13 11  1  0  0  0  0 
 11 14  2  0  0  0  0 
 15 12  1  0  0  0  0 
 16 13  1  0  0  0  0 
 17 15  1  0  0  0  0 
M  END
> <Name>
Dimethachlor

> <Source>
NIST2DMolFile

> <Tox>
-4.947

> <CAS>
50563-36-5

$$$$

  CDK

 16 18  0  0  0  0  0  0  0  0999 V2000
   -4.5239    1.7306   -0.0005 Br  0  0  0  0  0  0  0  0  0  0  0  0
   -2.9271    0.6980    0.0006 C   0  0  0  0  0  0  0  0  0  0  0  0
   -1.7205    1.3984    0.0004 C   0  0  0  0  0  0  0  0  0  0  0  0
   -2.9271   -0.6980    0.0005 C   0  0  0  0  0  0  0  0  0  0  0  0
   -0.5154    0.6970    0.0001 C   0  0  0  0  0  0  0  0  0  0  0  0
   -4.5237   -1.7307   -0.0009 Br  0  0  0  0  0  0  0  0  0  0  0  0
   -1.7206   -1.3985    0.0003 C   0  0  0  0  0  0  0  0  0  0  0  0
    0.6462    1.4269   -0.0001 O   0  0  0  0  0  0  0  0  0  0  0  0
   -0.5154   -0.6970    0.0001 C   0  0  0  0  0  0  0  0  0  0  0  0
    1.8079    0.6971   -0.0002 C   0  0  0  0  0  0  0  0  0  0  0  0
    0.6462   -1.4269    0.0000 O   0  0  0  0  0  0  0  0  0  0  0  0
    1.8079   -0.6971    0.0000 C   0  0  0  0  0  0  0  0  0  0  0  0
    3.0131    1.3984   -0.0003 C   0  0  0  0  0  0  0  0  0  0  0  0
    3.0131   -1.3984    0.0001 C   0  0  0  0  0  0  0  0  0  0  0  0
    4.2197    0.6980   -0.0002 C   0  0  0  0  0  0  0  0  0  0  0  0
    4.2197   -0.6980    0.0000 C   0  0  0  0  0  0  0  0  0  0  0  0
  1  2  1  0  0  0  0 
  3  2  1  0  0  0  0 
  2  4  2  0  0  0  0 
  5  3  2  0  0  0  0 
  6  4  1  0  0  0  0 
  7  4  1  0  0  0  0 
  8  5  1  0  0  0  0 
  5  9  1  0  0  0  0 
  9  7  2  0  0  0  0 
  8 10  1  0  0  0  0 
 11  9  1  0  0  0  0 
 10 12  1  0  0  0  0 
 10 13  2  0  0  0  0 
 11 12  1  0  0  0  0 
 12 14  2  0  0  0  0 
 13 15  1  0  0  0  0 
 14 16  1  0  0  0  0 
 15 16  2  0  0  0  0 
M  END
> <Name>
2,3-DIBROMODIBENZO-P-DIOXIN

> <Source>
Chemidplus3DMolFile

> <Tox>
-5.921

> <CAS>
50585-37-0

$$$$

  CDK

 18 20  0  0  0  0  0  0  0  0999 V2000
   -5.1551    1.7307   -0.0012 Br  0  0  0  0  0  0  0  0  0  0  0  0
   -3.5587    0.6979    0.0006 C   0  0  0  0  0  0  0  0  0  0  0  0
   -2.3521    1.3983    0.0004 C   0  0  0  0  0  0  0  0  0  0  0  0
   -3.5587   -0.6982    0.0006 C   0  0  0  0  0  0  0  0  0  0  0  0
   -1.1470    0.6969    0.0001 C   0  0  0  0  0  0  0  0  0  0  0  0
   -5.1552   -1.7304   -0.0002 Br  0  0  0  0  0  0  0  0  0  0  0  0
   -2.3521   -1.3986    0.0004 C   0  0  0  0  0  0  0  0  0  0  0  0
    0.0146    1.4269   -0.0002 O   0  0  0  0  0  0  0  0  0  0  0  0
   -1.1469   -0.6970    0.0002 C   0  0  0  0  0  0  0  0  0  0  0  0
    1.1763    0.6971   -0.0002 C   0  0  0  0  0  0  0  0  0  0  0  0
    0.0147   -1.4269    0.0000 O   0  0  0  0  0  0  0  0  0  0  0  0
    1.1763   -0.6971    0.0000 C   0  0  0  0  0  0  0  0  0  0  0  0
    2.3815    1.3985   -0.0004 C   0  0  0  0  0  0  0  0  0  0  0  0
    2.3816   -1.3984    0.0001 C   0  0  0  0  0  0  0  0  0  0  0  0
    3.5881    0.6981   -0.0003 C   0  0  0  0  0  0  0  0  0  0  0  0
    3.5882   -0.6979    0.0000 C   0  0  0  0  0  0  0  0  0  0  0  0
    5.0519    1.6177    0.0010 Cl  0  0  0  0  0  0  0  0  0  0  0  0
    5.0527   -1.6177   -0.0007 Cl  0  0  0  0  0  0  0  0  0  0  0  0
  1  2  1  0  0  0  0 
  3  2  1  0  0  0  0 
  2  4  2  0  0  0  0 
  5  3  2  0  0  0  0 
  6  4  1  0  0  0  0 
  7  4  1  0  0  0  0 
  8  5  1  0  0  0  0 
  5  9  1  0  0  0  0 
  9  7  2  0  0  0  0 
  8 10  1  0  0  0  0 
 11  9  1  0  0  0  0 
 10 12  1  0  0  0  0 
 10 13  2  0  0  0  0 
 11 12  1  0  0  0  0 
 12 14  2  0  0  0  0 
 13 15  1  0  0  0  0 
 14 16  1  0  0  0  0 
 17 15  1  0  0  0  0 
 15 16  2  0  0  0  0 
 18 16  1  0  0  0  0 
M  END
> <Name>
2,3-DIBROMO-7,8-DICHLORODIBENZO-P-DIOXIN

> <Source>
Chemidplus3DMolFile

> <Tox>
-8.333

> <CAS>
50585-40-5

$$$$

  CDK

 18 20  0  0  0  0  0  0  0  0999 V2000
    2.8579    0.8250    0.0000 Br  0  0  0  0  0  0  0  0  0  0  0  0
    2.1434    0.4125    0.0000 C   0  0  0  0  0  0  0  0  0  0  0  0
    1.4289    0.8250    0.0000 C   0  0  0  0  0  0  0  0  0  0  0  0
    2.1434   -0.4125    0.0000 C   0  0  0  0  0  0  0  0  0  0  0  0
    0.7145    0.4125    0.0000 C   0  0  0  0  0  0  0  0  0  0  0  0
    1.4289   -0.8250    0.0000 C   0  0  0  0  0  0  0  0  0  0  0  0
    2.8579   -0.8250    0.0000 Br  0  0  0  0  0  0  0  0  0  0  0  0
   -0.0000    0.8250    0.0000 O   0  0  0  0  0  0  0  0  0  0  0  0
    0.7145   -0.4125    0.0000 C   0  0  0  0  0  0  0  0  0  0  0  0
   -0.7145    0.4125    0.0000 C   0  0  0  0  0  0  0  0  0  0  0  0
    0.0000   -0.8250    0.0000 O   0  0  0  0  0  0  0  0  0  0  0  0
   -0.7145   -0.4125    0.0000 C   0  0  0  0  0  0  0  0  0  0  0  0
   -1.4289    0.8250    0.0000 C   0  0  0  0  0  0  0  0  0  0  0  0
   -1.4289   -0.8250    0.0000 C   0  0  0  0  0  0  0  0  0  0  0  0
   -2.1434    0.4125    0.0000 C   0  0  0  0  0  0  0  0  0  0  0  0
   -2.1434   -0.4125    0.0000 C   0  0  0  0  0  0  0  0  0  0  0  0
   -2.8579    0.8250    0.0000 Br  0  0  0  0  0  0  0  0  0  0  0  0
   -2.8579   -0.8250    0.0000 Br  0  0  0  0  0  0  0  0  0  0  0  0
  1  2  1  0  0  0  0 
  2  3  2  0  0  0  0 
  2  4  1  0  0  0  0 
  3  5  1  0  0  0  0 
  6  4  2  0  0  0  0 
  4  7  1  0  0  0  0 
  5  8  1  0  0  0  0 
  5  9  2  0  0  0  0 
  9  6  1  0  0  0  0 
  8 10  1  0  0  0  0 
  9 11  1  0  0  0  0 
 12 10  2  0  0  0  0 
 10 13  1  0  0  0  0 
 11 12  1  0  0  0  0 
 12 14  1  0  0  0  0 
 13 15  2  0  0  0  0 
 16 14  2  0  0  0  0 
 15 17  1  0  0  0  0 
 15 16  1  0  0  0  0 
 16 18  1  0  0  0  0 
M  END
> <Name>
2,3,7,8-TETRABROMODIBENZO-P-DIOXIN

> <Source>
Smiles

> <Tox>
-8.319

> <CAS>
50585-41-6

$$$$

  CDK

 18 20  0  0  0  0  0  0  0  0999 V2000
   -5.1213    1.7307    0.0000 Br  0  0  0  0  0  0  0  0  0  0  0  0
   -3.5250    0.6980    0.0005 C   0  0  0  0  0  0  0  0  0  0  0  0
   -2.3184    1.3984    0.0004 C   0  0  0  0  0  0  0  0  0  0  0  0
   -3.5250   -0.6980    0.0004 C   0  0  0  0  0  0  0  0  0  0  0  0
   -1.1133    0.6970    0.0001 C   0  0  0  0  0  0  0  0  0  0  0  0
   -5.1213   -1.7306   -0.0011 Br  0  0  0  0  0  0  0  0  0  0  0  0
   -2.3185   -1.3985    0.0002 C   0  0  0  0  0  0  0  0  0  0  0  0
    0.0483    1.4269   -0.0001 O   0  0  0  0  0  0  0  0  0  0  0  0
   -1.1133   -0.6970    0.0001 C   0  0  0  0  0  0  0  0  0  0  0  0
    1.2100    0.6971   -0.0002 C   0  0  0  0  0  0  0  0  0  0  0  0
    0.0483   -1.4269    0.0000 O   0  0  0  0  0  0  0  0  0  0  0  0
    1.2100   -0.6971    0.0000 C   0  0  0  0  0  0  0  0  0  0  0  0
    2.4152    1.3984   -0.0003 C   0  0  0  0  0  0  0  0  0  0  0  0
    2.4152   -1.3985    0.0002 C   0  0  0  0  0  0  0  0  0  0  0  0
    3.6218    0.6980   -0.0001 C   0  0  0  0  0  0  0  0  0  0  0  0
    3.6218   -0.6980    0.0001 C   0  0  0  0  0  0  0  0  0  0  0  0
    4.7828    1.3663   -0.0004 F   0  0  0  0  0  0  0  0  0  0  0  0
    4.7828   -1.3663    0.0003 F   0  0  0  0  0  0  0  0  0  0  0  0
  1  2  1  0  0  0  0 
  3  2  1  0  0  0  0 
  2  4  2  0  0  0  0 
  5  3  2  0  0  0  0 
  6  4  1  0  0  0  0 
  7  4  1  0  0  0  0 
  8  5  1  0  0  0  0 
  5  9  1  0  0  0  0 
  9  7  2  0  0  0  0 
  8 10  1  0  0  0  0 
 11  9  1  0  0  0  0 
 10 12  1  0  0  0  0 
 10 13  2  0  0  0  0 
 11 12  1  0  0  0  0 
 12 14  2  0  0  0  0 
 13 15  1  0  0  0  0 
 14 16  1  0  0  0  0 
 17 15  1  0  0  0  0 
 15 16  2  0  0  0  0 
 18 16  1  0  0  0  0 
M  END
> <Name>
2,3-DIBROMO-7,8-DIFLUORODIBENZO-P-DIOXIN

> <Source>
Chemidplus3DMolFile

> <Tox>
-7.745

> <CAS>
50585-43-8

$$$$

  CDK

 25 26  0  0  0  0  0  0  0  0999 V2000
    2.0554   -1.8430    2.7628 Cl  0  0  0  0  0  0  0  0  0  0  0  0
    2.3252   -1.1918    1.1884 C   0  0  0  0  0  0  0  0  0  0  0  0
    1.4646   -1.4513    0.1361 C   0  0  0  0  0  0  0  0  0  0  0  0
    3.4413   -0.3834    0.9721 C   0  0  0  0  0  0  0  0  0  0  0  0
    0.3494   -2.2509    0.3216 O   0  0  0  0  0  0  0  0  0  0  0  0
    1.6854   -0.9275   -1.1264 C   0  0  0  0  0  0  0  0  0  0  0  0
    3.6793    0.1528   -0.2934 C   0  0  0  0  0  0  0  0  0  0  0  0
   -0.8715   -1.7000    0.0793 C   0  0  0  0  0  0  0  0  0  0  0  0
    2.8012   -0.1193   -1.3427 C   0  0  0  0  0  0  0  0  0  0  0  0
    4.8723    1.0171   -0.5253 C   0  0  0  0  0  0  0  0  0  0  0  0
   -1.1696   -0.4249    0.5602 C   0  0  0  0  0  0  0  0  0  0  0  0
   -1.8247   -2.4108   -0.6501 C   0  0  0  0  0  0  0  0  0  0  0  0
    4.9784    1.4711   -1.8093 F   0  0  0  0  0  0  0  0  0  0  0  0
    4.8933    2.1401    0.2520 F   0  0  0  0  0  0  0  0  0  0  0  0
    6.0468    0.3714   -0.2673 F   0  0  0  0  0  0  0  0  0  0  0  0
   -2.4210    0.1392    0.3116 C   0  0  0  0  0  0  0  0  0  0  0  0
   -3.0759   -1.8466   -0.8988 C   0  0  0  0  0  0  0  0  0  0  0  0
   -3.3740   -0.5717   -0.4179 C   0  0  0  0  0  0  0  0  0  0  0  0
   -2.6961    1.4739    0.8301 C   0  0  0  0  0  0  0  0  0  0  0  0
   -4.6576   -0.0189   -0.6851 N   0  0  0  0  0  0  0  0  0  0  0  0
   -2.3450    2.4412   -0.0694 O   0  0  0  0  0  0  0  0  0  0  0  0
   -3.1839    1.7020    1.9426 O   0  0  0  0  0  0  0  0  0  0  0  0
   -5.4819   -0.6944   -1.3448 O   0  0  0  0  0  0  0  0  0  0  0  0
   -4.9251    1.1266   -0.2525 O   0  0  0  0  0  0  0  0  0  0  0  0
   -2.5665    3.7992    0.3262 C   0  0  0  0  0  0  0  0  0  0  0  0
  1  2  1  0  0  0  0 
  3  2  2  0  0  0  0 
  2  4  1  0  0  0  0 
  5  3  1  0  0  0  0 
  3  6  1  0  0  0  0 
  7  4  2  0  0  0  0 
  5  8  1  0  0  0  0 
  6  9  2  0  0  0  0 
  7  9  1  0  0  0  0 
  7 10  1  0  0  0  0 
  8 11  2  0  0  0  0 
  8 12  1  0  0  0  0 
 13 10  1  0  0  0  0 
 14 10  1  0  0  0  0 
 15 10  1  0  0  0  0 
 16 11  1  0  0  0  0 
 12 17  2  0  0  0  0 
 16 18  2  0  0  0  0 
 16 19  1  0  0  0  0 
 18 17  1  0  0  0  0 
 20 18  1  0  0  0  0 
 21 19  1  0  0  0  0 
 22 19  2  0  0  0  0 
 23 20  1  0  0  0  0 
 24 20  2  0  0  0  0 
 21 25  1  0  0  0  0 
M  CHG  1  20   1
M  CHG  1  23  -1
M  END
> <Name>
ACIFLUORFEN-ME

> <Source>
Chemidplus3DMolFile

> <Tox>
-7.125

> <CAS>
50594-67-7

$$$$

  CDK

 15 14  0  0  0  0  0  0  0  0999 V2000
   -2.9710    0.2955    0.0222 O   0  0  0  0  0  0  0  0  0  0  0  0
   -1.8387   -0.4642    0.0410 C   0  0  0  0  0  0  0  0  0  0  0  0
   -4.2014   -0.4342   -0.0190 C   0  0  0  0  0  0  0  0  0  0  0  0
   -1.7882   -1.6873    0.0259 O   0  0  0  0  0  0  0  0  0  0  0  0
   -0.6196    0.4237    0.0808 C   0  0  0  0  0  0  0  0  0  0  0  0
   -5.3589    0.5539   -0.0354 C   0  0  0  0  0  0  0  0  0  0  0  0
    0.6834   -0.3699    0.0464 C   0  0  0  0  0  0  0  0  0  0  0  0
   -6.7080   -0.1588   -0.0633 C   0  0  0  0  0  0  0  0  0  0  0  0
    1.9205    0.5342    0.0678 C   0  0  0  0  0  0  0  0  0  0  0  0
   -7.8617    0.8308   -0.0360 C   0  0  0  0  0  0  0  0  0  0  0  0
    3.2085   -0.2903    0.0017 C   0  0  0  0  0  0  0  0  0  0  0  0
    4.4794    0.5643    0.0074 C   0  0  0  0  0  0  0  0  0  0  0  0
    5.7667   -0.2583   -0.0844 C   0  0  0  0  0  0  0  0  0  0  0  0
    7.0031    0.6377   -0.0014 C   0  0  0  0  0  0  0  0  0  0  0  0
    8.2859   -0.1769   -0.0535 C   0  0  0  0  0  0  0  0  0  0  0  0
  1  2  1  0  0  0  0 
  1  3  1  0  0  0  0 
  4  2  2  0  0  0  0 
  5  2  1  0  0  0  0 
  6  3  1  0  0  0  0 
  7  5  1  0  0  0  0 
  6  8  1  0  0  0  0 
  9  7  1  0  0  0  0 
  8 10  1  0  0  0  0 
 11  9  1  0  0  0  0 
 11 12  1  0  0  0  0 
 12 13  1  0  0  0  0 
 13 14  1  0  0  0  0 
 14 15  1  0  0  0  0 
M  END
> <Name>
BUTYL NONANOATE

> <Source>
Chemidplus3DMolFile

> <Tox>
-1.670

> <CAS>
50623-57-9

$$$$

  CDK

 16 15  0  0  0  0  0  0  0  0999 V2000
    1.9728    1.4863    1.7585 S   0  0  0  0  0  0  0  0  0  0  0  0
    2.0572    0.6372   -0.1581 P   0  0  0  0  0  0  0  0  0  0  0  0
    2.2970    0.1240    2.8952 C   0  0  0  0  0  0  0  0  0  0  0  0
    0.8449   -0.4141   -0.3970 O   0  0  0  0  0  0  0  0  0  0  0  0
    3.4004   -0.0010   -0.3957 O   0  0  0  0  0  0  0  0  0  0  0  0
    1.7444    1.9275   -1.3631 C   0  0  0  0  0  0  0  0  0  0  0  0
    2.2627    0.6171    4.3364 C   0  0  0  0  0  0  0  0  0  0  0  0
   -0.5058   -0.0176   -0.2419 C   0  0  0  0  0  0  0  0  0  0  0  0
    2.5267   -0.4932    5.2467 N   0  0  0  0  0  0  0  0  0  0  0  0
   -1.4035   -1.2025   -0.5280 C   0  0  0  0  0  0  0  0  0  0  0  0
    2.5560   -0.0250    6.6329 C   0  0  0  0  0  0  0  0  0  0  0  0
    1.5186   -1.5413    5.0846 C   0  0  0  0  0  0  0  0  0  0  0  0
    1.2159    0.6011    7.0083 C   0  0  0  0  0  0  0  0  0  0  0  0
    3.6956    0.9738    6.8076 C   0  0  0  0  0  0  0  0  0  0  0  0
    0.1280   -0.9889    5.3848 C   0  0  0  0  0  0  0  0  0  0  0  0
    1.8525   -2.7133    6.0020 C   0  0  0  0  0  0  0  0  0  0  0  0
  1  2  1  0  0  0  0 
  1  3  1  0  0  0  0 
  2  4  1  0  0  0  0 
  2  5  2  0  0  0  0 
  2  6  1  0  0  0  0 
  7  3  1  0  0  0  0 
  4  8  1  0  0  0  0 
  9  7  1  0  0  0  0 
  8 10  1  0  0  0  0 
  9 11  1  0  0  0  0 
  9 12  1  0  0  0  0 
 11 13  1  0  0  0  0 
 11 14  1  0  0  0  0 
 12 15  1  0  0  0  0 
 12 16  1  0  0  0  0 
M  END
> <Name>
VX

> <Source>
Chemidplus3DMolFile

> <Tox>
-3.155

> <CAS>
50782-69-9

$$$$

  CDK

 18 19  0  0  0  0  0  0  0  0999 V2000
    2.3179   -3.2986    0.0000 N   0  0  0  0  0  0  0  0  0  0  0  0
    2.3179   -1.9856    0.0000 C   0  0  0  0  0  0  0  0  0  0  0  0
    3.4850   -3.9875    0.0000 C   0  0  0  0  0  0  0  0  0  0  0  0
    3.4607   -1.3373    0.0000 N   0  0  0  0  0  0  0  0  0  0  0  0
    1.1671   -1.3130    0.0000 N   0  0  0  0  0  0  0  0  0  0  0  0
    4.6115   -3.2986    0.0000 N   0  0  0  0  0  0  0  0  0  0  0  0
    3.4850   -5.3004    0.0000 O   0  0  0  0  0  0  0  0  0  0  0  0
    4.6115   -1.9856    0.0000 C   0  0  0  0  0  0  0  0  0  0  0  0
    3.4607   -0.0000    0.0000 C   0  0  0  0  0  0  0  0  0  0  0  0
    0.0000   -1.9856    0.0000 C   0  0  0  0  0  0  0  0  0  0  0  0
    1.1671   -0.0000    0.0000 C   0  0  0  0  0  0  0  0  0  0  0  0
    5.7867   -3.9632    0.0000 C   0  0  0  0  0  0  0  0  0  0  0  0
    5.7867   -1.3130    0.0000 O   0  0  0  0  0  0  0  0  0  0  0  0
    5.7867   -5.3004    0.0000 C   0  0  0  0  0  0  0  0  0  0  0  0
    6.9376   -3.2986    0.0000 C   0  0  0  0  0  0  0  0  0  0  0  0
    6.9376   -5.9488    0.0000 C   0  0  0  0  0  0  0  0  0  0  0  0
    8.1046   -3.9632    0.0000 C   0  0  0  0  0  0  0  0  0  0  0  0
    8.1046   -5.2680    0.0000 C   0  0  0  0  0  0  0  0  0  0  0  0
  1  2  2  0  0  0  0 
  1  3  1  0  0  0  0 
  4  2  1  0  0  0  0 
  2  5  1  0  0  0  0 
  6  3  1  0  0  0  0 
  3  7  2  0  0  0  0 
  8  4  1  0  0  0  0 
  4  9  1  0  0  0  0 
  5 10  1  0  0  0  0 
  5 11  1  0  0  0  0 
  8  6  1  0  0  0  0 
  6 12  1  0  0  0  0 
  8 13  2  0  0  0  0 
 12 14  1  0  0  0  0 
 12 15  1  0  0  0  0 
 14 16  1  0  0  0  0 
 15 17  1  0  0  0  0 
 16 18  1  0  0  0  0 
 17 18  1  0  0  0  0 
M  END
> <Name>
HEXAZINONE

> <Source>
DSSTox2DMolFile

> <Tox>
-6.648

> <CAS>
51235-04-2

$$$$

  CDK

 22 23  0  0  0  0  0  0  0  0999 V2000
    2.3054   -0.0000    0.0000 Cl  0  0  0  0  0  0  0  0  0  0  0  0
    2.3054   -1.3301    0.0000 C   0  0  0  0  0  0  0  0  0  0  0  0
    3.4582   -1.9888    0.0000 C   0  0  0  0  0  0  0  0  0  0  0  0
    1.1527   -1.9888    0.0000 C   0  0  0  0  0  0  0  0  0  0  0  0
    3.4582   -3.3188    0.0000 C   0  0  0  0  0  0  0  0  0  0  0  0
    4.6109   -1.3301    0.0000 O   0  0  0  0  0  0  0  0  0  0  0  0
    1.1527   -3.3188    0.0000 C   0  0  0  0  0  0  0  0  0  0  0  0
    2.3054   -3.9902    0.0000 C   0  0  0  0  0  0  0  0  0  0  0  0
    5.7636   -1.9888    0.0000 C   0  0  0  0  0  0  0  0  0  0  0  0
    0.0000   -3.9902    0.0000 Cl  0  0  0  0  0  0  0  0  0  0  0  0
    6.9163   -1.3301    0.0000 C   0  0  0  0  0  0  0  0  0  0  0  0
    5.7636   -3.3188    0.0000 C   0  0  0  0  0  0  0  0  0  0  0  0
    8.0690   -1.9888    0.0000 C   0  0  0  0  0  0  0  0  0  0  0  0
    6.9163   -3.9902    0.0000 C   0  0  0  0  0  0  0  0  0  0  0  0
    8.0690   -3.3188    0.0000 C   0  0  0  0  0  0  0  0  0  0  0  0
    9.2091   -3.9902    0.0000 O   0  0  0  0  0  0  0  0  0  0  0  0
   10.3618   -3.3188    0.0000 C   0  0  0  0  0  0  0  0  0  0  0  0
   10.3618   -1.9888    0.0000 C   0  0  0  0  0  0  0  0  0  0  0  0
   11.5145   -3.9902    0.0000 C   0  0  0  0  0  0  0  0  0  0  0  0
    9.2091   -1.3301    0.0000 O   0  0  0  0  0  0  0  0  0  0  0  0
   11.5145   -1.3301    0.0000 O   0  0  0  0  0  0  0  0  0  0  0  0
   12.6672   -1.9888    0.0000 C   0  0  0  0  0  0  0  0  0  0  0  0
  1  2  1  0  0  0  0 
  2  3  1  0  0  0  0 
  2  4  2  0  0  0  0 
  3  5  2  0  0  0  0 
  3  6  1  0  0  0  0 
  7  4  1  0  0  0  0 
  5  8  1  0  0  0  0 
  6  9  1  0  0  0  0 
  8  7  2  0  0  0  0 
  7 10  1  0  0  0  0 
  9 11  1  0  0  0  0 
  9 12  2  0  0  0  0 
 11 13  2  0  0  0  0 
 14 12  1  0  0  0  0 
 13 15  1  0  0  0  0 
 15 14  2  0  0  0  0 
 15 16  1  0  0  0  0 
 16 17  1  0  0  0  0 
 17 18  1  0  0  0  0 
 17 19  1  0  0  0  0 
 18 20  2  0  0  0  0 
 18 21  1  0  0  0  0 
 21 22  1  0  0  0  0 
M  END
> <Name>
DICLOFOP-METHYL

> <Source>
DSSTox2DMolFile

> <Tox>
-5.456

> <CAS>
51338-27-3

$$$$

  CDK

 15 16  0  0  0  0  0  0  0  0999 V2000
    6.7593   -1.2363    0.0000 S   0  0  0  0  0  0  0  0  0  0  0  0
    8.0277   -1.6376    0.0000 N   0  0  0  0  0  0  0  0  0  0  0  0
    5.9806   -2.3120    0.0000 C   0  0  0  0  0  0  0  0  0  0  0  0
    8.0277   -2.9622    0.0000 N   0  0  0  0  0  0  0  0  0  0  0  0
    6.7593   -3.3797    0.0000 C   0  0  0  0  0  0  0  0  0  0  0  0
    4.6480   -2.3120    0.0000 N   0  0  0  0  0  0  0  0  0  0  0  0
    3.9898   -1.1560    0.0000 C   0  0  0  0  0  0  0  0  0  0  0  0
    4.6480   -0.0000    0.0000 O   0  0  0  0  0  0  0  0  0  0  0  0
    2.6572   -1.1560    0.0000 N   0  0  0  0  0  0  0  0  0  0  0  0
    1.9909   -2.3120    0.0000 C   0  0  0  0  0  0  0  0  0  0  0  0
    2.6572   -3.4599    0.0000 C   0  0  0  0  0  0  0  0  0  0  0  0
    0.6583   -2.3120    0.0000 C   0  0  0  0  0  0  0  0  0  0  0  0
    1.9909   -4.6159    0.0000 C   0  0  0  0  0  0  0  0  0  0  0  0
    0.0000   -3.4599    0.0000 C   0  0  0  0  0  0  0  0  0  0  0  0
    0.6583   -4.6159    0.0000 C   0  0  0  0  0  0  0  0  0  0  0  0
  1  2  1  0  0  0  0 
  1  3  1  0  0  0  0 
  2  4  2  0  0  0  0 
  5  3  2  0  0  0  0 
  3  6  1  0  0  0  0 
  4  5  1  0  0  0  0 
  6  7  1  0  0  0  0 
  7  8  2  0  0  0  0 
  7  9  1  0  0  0  0 
  9 10  1  0  0  0  0 
 10 11  2  0  0  0  0 
 10 12  1  0  0  0  0 
 11 13  1  0  0  0  0 
 12 14  2  0  0  0  0 
 13 15  2  0  0  0  0 
 14 15  1  0  0  0  0 
M  END
> <Name>
THIDIAZURON

> <Source>
DSSTox2DMolFile

> <Tox>
-10.638

> <CAS>
51707-55-2

$$$$

  CDK

 15 16  0  0  0  0  0  0  0  0999 V2000
    0.6411   -2.5764    6.0196 Cl  0  0  0  0  0  0  0  0  0  0  0  0
    2.3257   -2.3873    5.7001 C   0  0  0  0  0  0  0  0  0  0  0  0
    2.7917   -1.4759    4.7689 C   0  0  0  0  0  0  0  0  0  0  0  0
    3.2402   -3.1749    6.3992 C   0  0  0  0  0  0  0  0  0  0  0  0
    1.9067   -0.6804    4.0607 O   0  0  0  0  0  0  0  0  0  0  0  0
    4.1447   -1.3274    4.5149 C   0  0  0  0  0  0  0  0  0  0  0  0
    4.6070   -3.0387    6.1562 C   0  0  0  0  0  0  0  0  0  0  0  0
    1.9042   -0.7896    2.7040 C   0  0  0  0  0  0  0  0  0  0  0  0
    5.0593   -2.1149    5.2141 C   0  0  0  0  0  0  0  0  0  0  0  0
    5.7359   -4.0114    7.0174 Cl  0  0  0  0  0  0  0  0  0  0  0  0
    1.9266   -2.0495    2.1057 C   0  0  0  0  0  0  0  0  0  0  0  0
    1.8793    0.3582    1.9119 C   0  0  0  0  0  0  0  0  0  0  0  0
    1.9240   -2.1614    0.7154 C   0  0  0  0  0  0  0  0  0  0  0  0
    1.8767    0.2462    0.5216 C   0  0  0  0  0  0  0  0  0  0  0  0
    1.8991   -1.0136   -0.0768 C   0  0  0  0  0  0  0  0  0  0  0  0
  1  2  1  0  0  0  0 
  3  2  2  0  0  0  0 
  2  4  1  0  0  0  0 
  5  3  1  0  0  0  0 
  3  6  1  0  0  0  0 
  4  7  2  0  0  0  0 
  5  8  1  0  0  0  0 
  6  9  2  0  0  0  0 
 10  7  1  0  0  0  0 
  9  7  1  0  0  0  0 
  8 11  2  0  0  0  0 
  8 12  1  0  0  0  0 
 11 13  1  0  0  0  0 
 12 14  2  0  0  0  0 
 13 15  2  0  0  0  0 
 14 15  1  0  0  0  0 
M  END
> <Name>
2,4-Dichlorodiphenyl ether

> <Source>
Chemidplus3DMolFile

> <Tox>
-3.036

> <CAS>
51892-26-3

$$$$

  CDK

 16 18  0  0  0  0  0  0  0  0999 V2000
    8.4751    1.5556    0.7264 C   0  0  0  0  0  0  0  0  0  0  0  0
    8.9200    1.1033    2.1016 C   0  0  0  0  0  0  0  0  0  0  0  0
    7.0591    2.0339    0.7423 C   0  0  0  0  0  0  0  0  0  0  0  0
    6.7562    3.3636    0.7757 C   0  0  0  0  0  0  0  0  0  0  0  0
    6.0099    1.0609    0.7196 C   0  0  0  0  0  0  0  0  0  0  0  0
    5.3924    3.8017    0.7817 C   0  0  0  0  0  0  0  0  0  0  0  0
    4.7060    1.4434    0.7237 C   0  0  0  0  0  0  0  0  0  0  0  0
    4.3533    2.8321    0.7523 C   0  0  0  0  0  0  0  0  0  0  0  0
    5.0698    5.1607    0.8115 C   0  0  0  0  0  0  0  0  0  0  0  0
    3.0191    3.2452    0.7519 C   0  0  0  0  0  0  0  0  0  0  0  0
    3.7353    5.5740    0.8120 C   0  0  0  0  0  0  0  0  0  0  0  0
    2.6970    4.6040    0.7810 C   0  0  0  0  0  0  0  0  0  0  0  0
    3.3853    6.9633    0.8429 C   0  0  0  0  0  0  0  0  0  0  0  0
    1.3342    5.0474    0.7791 C   0  0  0  0  0  0  0  0  0  0  0  0
    2.0808    7.3474    0.8405 C   0  0  0  0  0  0  0  0  0  0  0  0
    1.0396    6.3747    0.8072 C   0  0  0  0  0  0  0  0  0  0  0  0
  1  2  1  0  0  0  0 
  1  3  1  0  0  0  0 
  4  3  2  0  0  0  0 
  3  5  1  0  0  0  0 
  6  4  1  0  0  0  0 
  5  7  2  0  0  0  0 
  6  8  2  0  0  0  0 
  9  6  1  0  0  0  0 
  7  8  1  0  0  0  0 
  8 10  1  0  0  0  0 
 11  9  2  0  0  0  0 
 10 12  2  0  0  0  0 
 11 12  1  0  0  0  0 
 13 11  1  0  0  0  0 
 12 14  1  0  0  0  0 
 15 13  2  0  0  0  0 
 14 16  2  0  0  0  0 
 16 15  1  0  0  0  0 
M  END
> <Name>
2-ETHYLANTHRACENE

> <Source>
NIST3DMolFile

> <Tox>
-5.281

> <CAS>
52251-71-5

$$$$

  CDK

 26 28  0  0  0  0  0  0  0  0999 V2000
    6.6454   -5.3632    0.0000 C   0  0  0  0  0  0  0  0  0  0  0  0
    5.9836   -6.5213    0.0000 C   0  0  0  0  0  0  0  0  0  0  0  0
    5.9836   -4.2189    0.0000 C   0  0  0  0  0  0  0  0  0  0  0  0
    4.6600   -6.5213    0.0000 C   0  0  0  0  0  0  0  0  0  0  0  0
    4.6600   -4.2189    0.0000 C   0  0  0  0  0  0  0  0  0  0  0  0
    6.6454   -3.0607    0.0000 C   0  0  0  0  0  0  0  0  0  0  0  0
    3.9845   -5.3632    0.0000 C   0  0  0  0  0  0  0  0  0  0  0  0
    7.9827   -3.0607    0.0000 O   0  0  0  0  0  0  0  0  0  0  0  0
    2.6609   -5.3632    0.0000 O   0  0  0  0  0  0  0  0  0  0  0  0
    8.6445   -1.9164    0.0000 C   0  0  0  0  0  0  0  0  0  0  0  0
    1.9991   -6.5213    0.0000 C   0  0  0  0  0  0  0  0  0  0  0  0
    7.9827   -0.7583    0.0000 O   0  0  0  0  0  0  0  0  0  0  0  0
    9.9819   -1.9164    0.0000 C   0  0  0  0  0  0  0  0  0  0  0  0
    2.6609   -7.6656    0.0000 C   0  0  0  0  0  0  0  0  0  0  0  0
    0.6618   -6.5213    0.0000 C   0  0  0  0  0  0  0  0  0  0  0  0
   11.1262   -1.2546    0.0000 C   0  0  0  0  0  0  0  0  0  0  0  0
   11.1262   -2.5782    0.0000 C   0  0  0  0  0  0  0  0  0  0  0  0
    1.9991   -8.8237    0.0000 C   0  0  0  0  0  0  0  0  0  0  0  0
    0.0000   -7.6656    0.0000 C   0  0  0  0  0  0  0  0  0  0  0  0
   10.6712   -0.0000    0.0000 C   0  0  0  0  0  0  0  0  0  0  0  0
   12.4360   -1.0202    0.0000 C   0  0  0  0  0  0  0  0  0  0  0  0
   11.7880   -3.7363    0.0000 C   0  0  0  0  0  0  0  0  0  0  0  0
    0.6618   -8.8237    0.0000 C   0  0  0  0  0  0  0  0  0  0  0  0
   13.1253   -3.7363    0.0000 C   0  0  0  0  0  0  0  0  0  0  0  0
   13.7871   -4.8806    0.0000 Cl  0  0  0  0  0  0  0  0  0  0  0  0
   13.7871   -2.5782    0.0000 Cl  0  0  0  0  0  0  0  0  0  0  0  0
  1  2  2  0  0  0  0 
  1  3  1  0  0  0  0 
  2  4  1  0  0  0  0 
  5  3  2  0  0  0  0 
  3  6  1  0  0  0  0 
  4  7  2  0  0  0  0 
  7  5  1  0  0  0  0 
  6  8  1  0  0  0  0 
  7  9  1  0  0  0  0 
  8 10  1  0  0  0  0 
  9 11  1  0  0  0  0 
 10 12  2  0  0  0  0 
 10 13  1  0  0  0  0 
 11 14  2  0  0  0  0 
 11 15  1  0  0  0  0 
 13 16  1  0  0  0  0 
 13 17  1  0  0  0  0 
 14 18  1  0  0  0  0 
 19 15  2  0  0  0  0 
 16 20  1  0  0  0  0 
 16 21  1  0  0  0  0 
 16 17  1  0  0  0  0 
 17 22  1  0  0  0  0 
 18 23  2  0  0  0  0 
 23 19  1  0  0  0  0 
 22 24  2  0  0  0  0 
 24 25  1  0  0  0  0 
 24 26  1  0  0  0  0 
M  END
> <Name>
PERMETHRIN

> <Source>
DSSTox2DMolFile

> <Tox>
-7.662

> <CAS>
52645-53-1

$$$$

  CDK

 19 20  0  0  0  0  0  0  0  0999 V2000
    3.9926    3.4935    0.0000 Cl  0  0  0  0  0  0  0  0  0  0  0  0
    4.4917    2.5952    0.0000 C   0  0  0  0  0  0  0  0  0  0  0  0
    3.9926    1.7468    0.0000 C   0  0  0  0  0  0  0  0  0  0  0  0
    5.4898    2.5952    0.0000 C   0  0  0  0  0  0  0  0  0  0  0  0
    4.4917    0.8983    0.0000 C   0  0  0  0  0  0  0  0  0  0  0  0
    2.9945    1.7468    0.0000 C   0  0  0  0  0  0  0  0  0  0  0  0
    5.9889    3.4935    0.0000 Cl  0  0  0  0  0  0  0  0  0  0  0  0
    5.9889    1.7468    0.0000 C   0  0  0  0  0  0  0  0  0  0  0  0
    3.9926    0.0000    0.0000 Cl  0  0  0  0  0  0  0  0  0  0  0  0
    5.4898    0.8983    0.0000 C   0  0  0  0  0  0  0  0  0  0  0  0
    2.4954    0.8983    0.0000 C   0  0  0  0  0  0  0  0  0  0  0  0
    2.4954    2.5952    0.0000 C   0  0  0  0  0  0  0  0  0  0  0  0
    6.9871    1.7468    0.0000 Cl  0  0  0  0  0  0  0  0  0  0  0  0
    2.9945    0.0000    0.0000 Cl  0  0  0  0  0  0  0  0  0  0  0  0
    1.4972    0.8983    0.0000 C   0  0  0  0  0  0  0  0  0  0  0  0
    1.4972    2.5952    0.0000 C   0  0  0  0  0  0  0  0  0  0  0  0
    0.9982    0.0000    0.0000 Cl  0  0  0  0  0  0  0  0  0  0  0  0
    0.9982    1.7468    0.0000 C   0  0  0  0  0  0  0  0  0  0  0  0
    0.0000    1.7468    0.0000 Cl  0  0  0  0  0  0  0  0  0  0  0  0
  1  2  1  0  0  0  0 
  2  3  2  0  0  0  0 
  4  2  1  0  0  0  0 
  3  5  1  0  0  0  0 
  3  6  1  0  0  0  0 
  4  7  1  0  0  0  0 
  8  4  2  0  0  0  0 
  5  9  1  0  0  0  0 
  5 10  2  0  0  0  0 
 11  6  2  0  0  0  0 
  6 12  1  0  0  0  0 
 10  8  1  0  0  0  0 
  8 13  1  0  0  0  0 
 11 14  1  0  0  0  0 
 15 11  1  0  0  0  0 
 12 16  2  0  0  0  0 
 15 17  1  0  0  0  0 
 18 15  2  0  0  0  0 
 16 18  1  0  0  0  0 
 18 19  1  0  0  0  0 
M  END
> <Name>
2,2',3,3',4,4',6-HEPTACHLOROBIPHENYL

> <Source>
NIST2DMolFile

> <Tox>
-5.854

> <CAS>
52663-71-5

$$$$

  CDK

 18 19  0  0  0  0  0  0  0  0999 V2000
    2.5990    1.9992    0.0000 C   0  0  0  0  0  0  0  0  0  0  0  0
    1.7493    1.4994    0.0000 C   0  0  0  0  0  0  0  0  0  0  0  0
    2.5990    2.9988    0.0000 C   0  0  0  0  0  0  0  0  0  0  0  0
    3.4986    1.4994    0.0000 C   0  0  0  0  0  0  0  0  0  0  0  0
    0.8996    1.9992    0.0000 C   0  0  0  0  0  0  0  0  0  0  0  0
    1.7493    0.4998    0.0000 Cl  0  0  0  0  0  0  0  0  0  0  0  0
    1.7493    3.4986    0.0000 C   0  0  0  0  0  0  0  0  0  0  0  0
    3.4986    3.4986    0.0000 Cl  0  0  0  0  0  0  0  0  0  0  0  0
    4.3483    1.9992    0.0000 C   0  0  0  0  0  0  0  0  0  0  0  0
    3.4986    0.4998    0.0000 C   0  0  0  0  0  0  0  0  0  0  0  0
    0.8996    2.9988    0.0000 C   0  0  0  0  0  0  0  0  0  0  0  0
    0.0000    1.4994    0.0000 Cl  0  0  0  0  0  0  0  0  0  0  0  0
    1.7493    4.4982    0.0000 Cl  0  0  0  0  0  0  0  0  0  0  0  0
    5.1980    1.4994    0.0000 C   0  0  0  0  0  0  0  0  0  0  0  0
    4.3483    2.9988    0.0000 Cl  0  0  0  0  0  0  0  0  0  0  0  0
    4.3483    0.0000    0.0000 C   0  0  0  0  0  0  0  0  0  0  0  0
    5.1980    0.4998    0.0000 C   0  0  0  0  0  0  0  0  0  0  0  0
    6.0976    1.9992    0.0000 Cl  0  0  0  0  0  0  0  0  0  0  0  0
  1  2  2  0  0  0  0 
  3  1  1  0  0  0  0 
  1  4  1  0  0  0  0 
  2  5  1  0  0  0  0 
  2  6  1  0  0  0  0 
  7  3  2  0  0  0  0 
  3  8  1  0  0  0  0 
  4  9  2  0  0  0  0 
 10  4  1  0  0  0  0 
  5 11  2  0  0  0  0 
  5 12  1  0  0  0  0 
 11  7  1  0  0  0  0 
  7 13  1  0  0  0  0 
  9 14  1  0  0  0  0 
  9 15  1  0  0  0  0 
 16 10  2  0  0  0  0 
 14 17  2  0  0  0  0 
 14 18  1  0  0  0  0 
 17 16  1  0  0  0  0 
M  END
> <Name>
2,2',3,3',5,6-HEXACHLOROBIPHENYL

> <Source>
NIST2DMolFile

> <Tox>
-5.959

> <CAS>
52704-70-8

$$$$

  CDK

 28 30  0  0  0  0  0  0  0  0999 V2000
    4.1832   -1.0333    0.0000 C   0  0  0  0  0  0  0  0  0  0  0  0
    3.4665   -2.1999    0.0000 C   0  0  0  0  0  0  0  0  0  0  0  0
    4.8498   -2.1999    0.0000 C   0  0  0  0  0  0  0  0  0  0  0  0
    4.8498   -0.0000    0.0000 C   0  0  0  0  0  0  0  0  0  0  0  0
    3.6332   -0.0000    0.0000 C   0  0  0  0  0  0  0  0  0  0  0  0
    2.3499   -2.8332    0.0000 C   0  0  0  0  0  0  0  0  0  0  0  0
    6.0498   -2.8666    0.0000 C   0  0  0  0  0  0  0  0  0  0  0  0
    1.1500   -2.1999    0.0000 C   0  0  0  0  0  0  0  0  0  0  0  0
    7.2164   -2.1999    0.0000 O   0  0  0  0  0  0  0  0  0  0  0  0
    6.0498   -4.1999    0.0000 O   0  0  0  0  0  0  0  0  0  0  0  0
    0.0000   -2.8332    0.0000 Br  0  0  0  0  0  0  0  0  0  0  0  0
    1.1500   -0.8333    0.0000 Br  0  0  0  0  0  0  0  0  0  0  0  0
    8.3664   -2.8666    0.0000 C   0  0  0  0  0  0  0  0  0  0  0  0
    8.3664   -4.1999    0.0000 C   0  0  0  0  0  0  0  0  0  0  0  0
    9.5663   -2.2333    0.0000 C   0  0  0  0  0  0  0  0  0  0  0  0
    8.3664   -5.3998    0.0000 N   0  0  0  0  0  0  0  0  0  0  0  0
   10.7330   -2.8999    0.0000 C   0  0  0  0  0  0  0  0  0  0  0  0
    9.5663   -0.9000    0.0000 C   0  0  0  0  0  0  0  0  0  0  0  0
   11.9496   -2.2833    0.0000 C   0  0  0  0  0  0  0  0  0  0  0  0
   10.7330   -0.1500    0.0000 C   0  0  0  0  0  0  0  0  0  0  0  0
   13.0996   -2.8832    0.0000 O   0  0  0  0  0  0  0  0  0  0  0  0
   11.9496   -0.9000    0.0000 C   0  0  0  0  0  0  0  0  0  0  0  0
   14.2995   -2.1999    0.0000 C   0  0  0  0  0  0  0  0  0  0  0  0
   14.2995   -0.9000    0.0000 C   0  0  0  0  0  0  0  0  0  0  0  0
   15.4995   -2.8832    0.0000 C   0  0  0  0  0  0  0  0  0  0  0  0
   15.4328   -0.2167    0.0000 C   0  0  0  0  0  0  0  0  0  0  0  0
   16.6661   -2.2833    0.0000 C   0  0  0  0  0  0  0  0  0  0  0  0
   16.6661   -0.8666    0.0000 C   0  0  0  0  0  0  0  0  0  0  0  0
  1  2  1  0  0  0  0 
  1  3  1  0  0  0  0 
  1  4  1  0  0  0  0 
  1  5  1  0  0  0  0 
  2  6  1  6  0  0  0 
  2  3  1  0  0  0  0 
  3  7  1  6  0  0  0 
  6  8  2  0  0  0  0 
  7  9  1  0  0  0  0 
  7 10  2  0  0  0  0 
  8 11  1  0  0  0  0 
  8 12  1  0  0  0  0 
  9 13  1  0  0  0  0 
 13 14  1  1  0  0  0 
 13 15  1  0  0  0  0 
 16 14  3  0  0  0  0 
 15 17  1  0  0  0  0 
 15 18  2  0  0  0  0 
 17 19  2  0  0  0  0 
 18 20  1  0  0  0  0 
 19 21  1  0  0  0  0 
 19 22  1  0  0  0  0 
 20 22  2  0  0  0  0 
 21 23  1  0  0  0  0 
 23 24  1  0  0  0  0 
 23 25  2  0  0  0  0 
 24 26  2  0  0  0  0 
 25 27  1  0  0  0  0 
 26 28  1  0  0  0  0 
 27 28  2  0  0  0  0 
M  END
> <Name>
DELTAMETHRIN

> <Source>
DSSTox2DMolFile

> <Tox>
-7.824

> <CAS>
52918-63-5

$$$$

  CDK

 15 16  0  0  0  0  0  0  0  0999 V2000
    5.7642   -3.9881    0.0000 N   0  0  0  0  0  0  0  0  0  0  0  0
    4.6097   -3.3342    0.0000 C   0  0  0  0  0  0  0  0  0  0  0  0
    6.9186   -3.3342    0.0000 C   0  0  0  0  0  0  0  0  0  0  0  0
    4.6097   -2.0021    0.0000 N   0  0  0  0  0  0  0  0  0  0  0  0
    3.4633   -3.9881    0.0000 N   0  0  0  0  0  0  0  0  0  0  0  0
    6.9186   -2.0021    0.0000 C   0  0  0  0  0  0  0  0  0  0  0  0
    8.0731   -3.9881    0.0000 C   0  0  0  0  0  0  0  0  0  0  0  0
    5.7642   -1.3321    0.0000 C   0  0  0  0  0  0  0  0  0  0  0  0
    2.3089   -3.3342    0.0000 C   0  0  0  0  0  0  0  0  0  0  0  0
    5.7642   -0.0000    0.0000 C   0  0  0  0  0  0  0  0  0  0  0  0
    1.1544   -3.9881    0.0000 C   0  0  0  0  0  0  0  0  0  0  0  0
    2.3089   -2.0021    0.0000 C   0  0  0  0  0  0  0  0  0  0  0  0
    0.0000   -3.3342    0.0000 C   0  0  0  0  0  0  0  0  0  0  0  0
    1.1544   -1.3321    0.0000 C   0  0  0  0  0  0  0  0  0  0  0  0
    0.0000   -2.0021    0.0000 C   0  0  0  0  0  0  0  0  0  0  0  0
  1  2  2  0  0  0  0 
  1  3  1  0  0  0  0 
  4  2  1  0  0  0  0 
  2  5  1  0  0  0  0 
  6  3  2  0  0  0  0 
  3  7  1  0  0  0  0 
  4  8  2  0  0  0  0 
  5  9  1  0  0  0  0 
  6  8  1  0  0  0  0 
  8 10  1  0  0  0  0 
  9 11  2  0  0  0  0 
  9 12  1  0  0  0  0 
 11 13  1  0  0  0  0 
 12 14  2  0  0  0  0 
 13 15  2  0  0  0  0 
 14 15  1  0  0  0  0 
M  END
> <Name>
Pyrimethanil

> <Source>
DSSTox2DMolFile

> <Tox>
-4.783

> <CAS>
53112-28-0

$$$$

  CDK

 14 15  0  0  0  0  0  0  0  0999 V2000
    6.0389    1.4160    0.0000 Cl  0  0  0  0  0  0  0  0  0  0  0  0
    4.8311    2.1240    0.0000 C   0  0  0  0  0  0  0  0  0  0  0  0
    3.6233    1.4160    0.0000 C   0  0  0  0  0  0  0  0  0  0  0  0
    4.8311    3.4984    0.0000 C   0  0  0  0  0  0  0  0  0  0  0  0
    2.4156    2.1240    0.0000 C   0  0  0  0  0  0  0  0  0  0  0  0
    3.6233    4.2064    0.0000 C   0  0  0  0  0  0  0  0  0  0  0  0
    6.0389    4.2064    0.0000 Cl  0  0  0  0  0  0  0  0  0  0  0  0
    1.2078    1.4160    0.0000 C   0  0  0  0  0  0  0  0  0  0  0  0
    2.4156    3.4984    0.0000 C   0  0  0  0  0  0  0  0  0  0  0  0
    3.6233    5.5808    0.0000 Cl  0  0  0  0  0  0  0  0  0  0  0  0
    1.2078    0.0000    0.0000 Cl  0  0  0  0  0  0  0  0  0  0  0  0
    0.0000    2.1240    0.0000 C   0  0  0  0  0  0  0  0  0  0  0  0
    1.2078    4.2064    0.0000 C   0  0  0  0  0  0  0  0  0  0  0  0
    0.0000    3.4984    0.0000 C   0  0  0  0  0  0  0  0  0  0  0  0
  1  2  1  0  0  0  0 
  2  3  2  0  0  0  0 
  2  4  1  0  0  0  0 
  3  5  1  0  0  0  0 
  6  4  2  0  0  0  0 
  4  7  1  0  0  0  0 
  5  8  2  0  0  0  0 
  5  9  1  0  0  0  0 
  9  6  1  0  0  0  0 
  6 10  1  0  0  0  0 
  8 11  1  0  0  0  0 
  8 12  1  0  0  0  0 
 13  9  2  0  0  0  0 
 12 14  2  0  0  0  0 
 14 13  1  0  0  0  0 
M  END
> <Name>
1,2,3,5-TETRACHLORONAPHTHALENE

> <Source>
IndexNet2DMolFile

> <Tox>
-4.963

> <CAS>
53555-63-8

$$$$

  CDK

 23 23  0  0  0  0  0  0  0  0999 V2000
    4.6141   -4.2097    0.0000 C   0  0  0  0  0  0  0  0  0  0  0  0
    4.6141   -2.8769    0.0000 C   0  0  0  0  0  0  0  0  0  0  0  0
    5.7539   -4.8715    0.0000 N   0  0  0  0  0  0  0  0  0  0  0  0
    3.4744   -4.8715    0.0000 C   0  0  0  0  0  0  0  0  0  0  0  0
    3.4744   -2.2151    0.0000 C   0  0  0  0  0  0  0  0  0  0  0  0
    5.7539   -2.2151    0.0000 N   0  0  0  0  0  0  0  0  0  0  0  0
    6.8936   -4.2097    0.0000 O   0  0  0  0  0  0  0  0  0  0  0  0
    5.7539   -6.1859    0.0000 O   0  0  0  0  0  0  0  0  0  0  0  0
    2.3254   -4.2097    0.0000 C   0  0  0  0  0  0  0  0  0  0  0  0
    3.4744   -0.8824    0.0000 N   0  0  0  0  0  0  0  0  0  0  0  0
    2.3254   -2.8769    0.0000 C   0  0  0  0  0  0  0  0  0  0  0  0
    6.8936   -2.8769    0.0000 C   0  0  0  0  0  0  0  0  0  0  0  0
    5.7539   -0.8824    0.0000 C   0  0  0  0  0  0  0  0  0  0  0  0
    1.1581   -4.8991    0.0000 C   0  0  0  0  0  0  0  0  0  0  0  0
    4.6141   -0.2206    0.0000 O   0  0  0  0  0  0  0  0  0  0  0  0
    2.2979   -0.2114    0.0000 O   0  0  0  0  0  0  0  0  0  0  0  0
    8.0517   -2.1876    0.0000 C   0  0  0  0  0  0  0  0  0  0  0  0
    6.7374   -0.0000    0.0000 C   0  0  0  0  0  0  0  0  0  0  0  0
    0.0000   -5.5792    0.0000 F   0  0  0  0  0  0  0  0  0  0  0  0
    0.4780   -3.7317    0.0000 F   0  0  0  0  0  0  0  0  0  0  0  0
    1.8475   -6.0572    0.0000 F   0  0  0  0  0  0  0  0  0  0  0  0
    9.1915   -2.8402    0.0000 C   0  0  0  0  0  0  0  0  0  0  0  0
    8.0517   -0.8548    0.0000 C   0  0  0  0  0  0  0  0  0  0  0  0
  1  2  2  0  0  0  0 
  1  3  1  0  0  0  0 
  1  4  1  0  0  0  0 
  5  2  1  0  0  0  0 
  2  6  1  0  0  0  0 
  3  7  1  0  0  0  0 
  3  8  2  0  0  0  0 
  9  4  2  0  0  0  0 
  5 10  1  0  0  0  0 
  5 11  2  0  0  0  0 
  6 12  1  0  0  0  0 
  6 13  1  0  0  0  0 
 14  9  1  0  0  0  0 
  9 11  1  0  0  0  0 
 10 15  1  0  0  0  0 
 10 16  2  0  0  0  0 
 12 17  1  0  0  0  0 
 13 18  1  0  0  0  0 
 14 19  1  0  0  0  0 
 14 20  1  0  0  0  0 
 14 21  1  0  0  0  0 
 17 22  2  0  0  0  0 
 17 23  1  0  0  0  0 
M  CHG  1   3   1
M  CHG  1   7  -1
M  CHG  1  10   1
M  CHG  1  15  -1
M  END
> <Name>
ETHALFLURALIN

> <Source>
DSSTox2DMolFile

> <Tox>
-4.057

> <CAS>
55283-68-6

$$$$

  CDK

 26 27  0  0  0  0  0  0  0  0999 V2000
    6.9117   -4.7806    0.0000 C   0  0  0  0  0  0  0  0  0  0  0  0
    6.9117   -3.4558    0.0000 O   0  0  0  0  0  0  0  0  0  0  0  0
    8.0521   -5.4372    0.0000 O   0  0  0  0  0  0  0  0  0  0  0  0
    5.7482   -5.4372    0.0000 N   0  0  0  0  0  0  0  0  0  0  0  0
    9.2155   -4.7806    0.0000 C   0  0  0  0  0  0  0  0  0  0  0  0
    4.6078   -4.7806    0.0000 S   0  0  0  0  0  0  0  0  0  0  0  0
    5.7482   -6.7619    0.0000 C   0  0  0  0  0  0  0  0  0  0  0  0
    9.2155   -3.4558    0.0000 C   0  0  0  0  0  0  0  0  0  0  0  0
   10.3560   -5.4372    0.0000 C   0  0  0  0  0  0  0  0  0  0  0  0
    3.4443   -5.4372    0.0000 N   0  0  0  0  0  0  0  0  0  0  0  0
    8.2249   -2.5573    0.0000 O   0  0  0  0  0  0  0  0  0  0  0  0
   10.3560   -2.7762    0.0000 C   0  0  0  0  0  0  0  0  0  0  0  0
   11.5194   -4.7806    0.0000 C   0  0  0  0  0  0  0  0  0  0  0  0
    2.3039   -4.7806    0.0000 C   0  0  0  0  0  0  0  0  0  0  0  0
    3.4443   -6.7619    0.0000 C   0  0  0  0  0  0  0  0  0  0  0  0
    8.7663   -1.3363    0.0000 C   0  0  0  0  0  0  0  0  0  0  0  0
   10.0795   -1.4860    0.0000 C   0  0  0  0  0  0  0  0  0  0  0  0
   11.5194   -3.4558    0.0000 C   0  0  0  0  0  0  0  0  0  0  0  0
    2.3039   -3.4558    0.0000 C   0  0  0  0  0  0  0  0  0  0  0  0
    2.3039   -7.4531    0.0000 C   0  0  0  0  0  0  0  0  0  0  0  0
    8.7663   -0.0000    0.0000 C   0  0  0  0  0  0  0  0  0  0  0  0
    7.6028   -0.6796    0.0000 C   0  0  0  0  0  0  0  0  0  0  0  0
    1.1404   -2.7762    0.0000 C   0  0  0  0  0  0  0  0  0  0  0  0
    1.1404   -6.7619    0.0000 C   0  0  0  0  0  0  0  0  0  0  0  0
    1.1404   -1.4514    0.0000 C   0  0  0  0  0  0  0  0  0  0  0  0
    0.0000   -7.4531    0.0000 C   0  0  0  0  0  0  0  0  0  0  0  0
  1  2  2  0  0  0  0 
  1  3  1  0  0  0  0 
  1  4  1  0  0  0  0 
  3  5  1  0  0  0  0 
  4  6  1  0  0  0  0 
  4  7  1  0  0  0  0 
  8  5  2  0  0  0  0 
  5  9  1  0  0  0  0 
  6 10  1  0  0  0  0 
 11  8  1  0  0  0  0 
  8 12  1  0  0  0  0 
  9 13  2  0  0  0  0 
 10 14  1  0  0  0  0 
 10 15  1  0  0  0  0 
 11 16  1  0  0  0  0 
 12 17  1  0  0  0  0 
 12 18  2  0  0  0  0 
 13 18  1  0  0  0  0 
 14 19  1  0  0  0  0 
 15 20  1  0  0  0  0 
 16 17  1  0  0  0  0 
 16 21  1  0  0  0  0 
 16 22  1  0  0  0  0 
 19 23  1  0  0  0  0 
 20 24  1  0  0  0  0 
 23 25  1  0  0  0  0 
 24 26  1  0  0  0  0 
M  END
> <Name>
Carbamic acid, [(dibutylamino)thio]methyl-, 2,3-

> <Source>
DSSTox2DMolFile

> <Tox>
-6.513

> <CAS>
55285-14-8

$$$$

  CDK

 12 12  0  0  0  0  0  0  0  0999 V2000
    1.1444   -1.1298    0.0000 S   0  0  0  0  0  0  0  0  0  0  0  0
    2.2984   -1.7893    0.0000 C   0  0  0  0  0  0  0  0  0  0  0  0
    0.0000   -1.7893    0.0000 C   0  0  0  0  0  0  0  0  0  0  0  0
    0.4316   -0.0000    0.0000 O   0  0  0  0  0  0  0  0  0  0  0  0
    2.0075   -0.1018    0.0000 O   0  0  0  0  0  0  0  0  0  0  0  0
    2.2984   -3.1227    0.0000 C   0  0  0  0  0  0  0  0  0  0  0  0
    3.4524   -1.1153    0.0000 C   0  0  0  0  0  0  0  0  0  0  0  0
    0.0000   -3.1227    0.0000 C   0  0  0  0  0  0  0  0  0  0  0  0
    1.1444   -3.7822    0.0000 S   0  0  0  0  0  0  0  0  0  0  0  0
    3.4524   -3.7967    0.0000 C   0  0  0  0  0  0  0  0  0  0  0  0
    0.3928   -4.8489    0.0000 O   0  0  0  0  0  0  0  0  0  0  0  0
    2.0947   -4.7229    0.0000 O   0  0  0  0  0  0  0  0  0  0  0  0
  1  2  1  0  0  0  0 
  1  3  1  0  0  0  0 
  1  4  2  0  0  0  0 
  1  5  2  0  0  0  0 
  6  2  2  0  0  0  0 
  2  7  1  0  0  0  0 
  8  3  1  0  0  0  0 
  9  6  1  0  0  0  0 
  6 10  1  0  0  0  0 
  9  8  1  0  0  0  0 
  9 11  2  0  0  0  0 
  9 12  2  0  0  0  0 
M  END
> <Name>
DIMETHIPIN

> <Source>
DSSTox2DMolFile

> <Tox>
-6.417

> <CAS>
55290-64-7

$$$$

  CDK

 17 18  0  0  0  0  0  0  0  0999 V2000
    4.4653    0.8529    0.0000 C   0  0  0  0  0  0  0  0  0  0  0  0
    5.4687    0.8529    0.0000 C   0  0  0  0  0  0  0  0  0  0  0  0
    4.0138    1.7560    0.0000 C   0  0  0  0  0  0  0  0  0  0  0  0
    3.9636    0.0000    0.0000 Cl  0  0  0  0  0  0  0  0  0  0  0  0
    5.9203    1.7560    0.0000 C   0  0  0  0  0  0  0  0  0  0  0  0
    4.4653    2.6089    0.0000 C   0  0  0  0  0  0  0  0  0  0  0  0
    3.0103    1.7560    0.0000 C   0  0  0  0  0  0  0  0  0  0  0  0
    5.4687    2.6089    0.0000 C   0  0  0  0  0  0  0  0  0  0  0  0
    2.5086    2.6089    0.0000 C   0  0  0  0  0  0  0  0  0  0  0  0
    2.5086    0.8529    0.0000 C   0  0  0  0  0  0  0  0  0  0  0  0
    1.5052    2.6089    0.0000 C   0  0  0  0  0  0  0  0  0  0  0  0
    1.5052    0.8529    0.0000 C   0  0  0  0  0  0  0  0  0  0  0  0
    3.0103    0.0000    0.0000 Cl  0  0  0  0  0  0  0  0  0  0  0  0
    1.0034    1.7560    0.0000 C   0  0  0  0  0  0  0  0  0  0  0  0
    1.0034    3.4619    0.0000 Cl  0  0  0  0  0  0  0  0  0  0  0  0
    0.9533    0.0000    0.0000 Cl  0  0  0  0  0  0  0  0  0  0  0  0
    0.0000    1.7560    0.0000 Cl  0  0  0  0  0  0  0  0  0  0  0  0
  1  2  2  0  0  0  0 
  3  1  1  0  0  0  0 
  1  4  1  0  0  0  0 
  2  5  1  0  0  0  0 
  6  3  2  0  0  0  0 
  3  7  1  0  0  0  0 
  5  8  2  0  0  0  0 
  8  6  1  0  0  0  0 
  7  9  2  0  0  0  0 
 10  7  1  0  0  0  0 
  9 11  1  0  0  0  0 
 12 10  2  0  0  0  0 
 10 13  1  0  0  0  0 
 11 14  2  0  0  0  0 
 11 15  1  0  0  0  0 
 14 12  1  0  0  0  0 
 12 16  1  0  0  0  0 
 14 17  1  0  0  0  0 
M  END
> <Name>
2,2',3,4,5-PENTACHLOROBIPHENYL

> <Source>
NIST2DMolFile

> <Tox>
-4.156

> <CAS>
55312-69-1

$$$$

  CDK

 14 14  0  0  0  0  0  0  0  0999 V2000
    2.2949   -1.3931    0.0000 N   0  0  0  0  0  0  0  0  0  0  0  0
    3.4384   -2.0453    0.0000 C   0  0  0  0  0  0  0  0  0  0  0  0
    1.1595   -2.0453    0.0000 C   0  0  0  0  0  0  0  0  0  0  0  0
    3.4384   -3.3740    0.0000 C   0  0  0  0  0  0  0  0  0  0  0  0
    4.5818   -1.3931    0.0000 O   0  0  0  0  0  0  0  0  0  0  0  0
    1.1595   -3.3740    0.0000 C   0  0  0  0  0  0  0  0  0  0  0  0
    0.0000   -1.3770    0.0000 Cl  0  0  0  0  0  0  0  0  0  0  0  0
    2.2949   -4.0423    0.0000 C   0  0  0  0  0  0  0  0  0  0  0  0
    4.5818   -4.0584    0.0000 Cl  0  0  0  0  0  0  0  0  0  0  0  0
    5.7253   -2.0453    0.0000 C   0  0  0  0  0  0  0  0  0  0  0  0
    0.0000   -4.0584    0.0000 Cl  0  0  0  0  0  0  0  0  0  0  0  0
    6.8929   -1.3609    0.0000 C   0  0  0  0  0  0  0  0  0  0  0  0
    8.0524   -2.0131    0.0000 O   0  0  0  0  0  0  0  0  0  0  0  0
    6.8929   -0.0000    0.0000 O   0  0  0  0  0  0  0  0  0  0  0  0
  1  2  1  0  0  0  0 
  1  3  2  0  0  0  0 
  2  4  2  0  0  0  0 
  2  5  1  0  0  0  0 
  3  6  1  0  0  0  0 
  3  7  1  0  0  0  0 
  8  4  1  0  0  0  0 
  4  9  1  0  0  0  0 
  5 10  1  0  0  0  0 
  8  6  2  0  0  0  0 
  6 11  1  0  0  0  0 
 12 10  1  0  0  0  0 
 12 13  2  0  0  0  0 
 12 14  1  0  0  0  0 
M  END
> <Name>
TRICLOPYR

> <Source>
DSSTox2DMolFile

> <Tox>
-5.900

> <CAS>
55335-06-3

$$$$

  CDK

 14 13  0  0  0  0  0  0  0  0999 V2000
   -7.0748    1.0183   -0.0702 Cl  0  0  0  0  0  0  0  0  0  0  0  0
   -5.7510   -0.1172   -0.0497 C   0  0  0  0  0  0  0  0  0  0  0  0
   -4.5199    0.4977   -0.0188 O   0  0  0  0  0  0  0  0  0  0  0  0
   -5.8849   -1.3373   -0.0610 O   0  0  0  0  0  0  0  0  0  0  0  0
   -3.3853   -0.3565    0.0001 C   0  0  0  0  0  0  0  0  0  0  0  0
   -2.1088    0.4751    0.0335 C   0  0  0  0  0  0  0  0  0  0  0  0
   -0.8504   -0.3970    0.0752 C   0  0  0  0  0  0  0  0  0  0  0  0
    0.4188    0.4591    0.0746 C   0  0  0  0  0  0  0  0  0  0  0  0
    1.6753   -0.4141    0.0861 C   0  0  0  0  0  0  0  0  0  0  0  0
    2.9769    0.3921    0.1164 C   0  0  0  0  0  0  0  0  0  0  0  0
    4.2337   -0.4786    0.0531 C   0  0  0  0  0  0  0  0  0  0  0  0
    5.5003    0.3798    0.0128 C   0  0  0  0  0  0  0  0  0  0  0  0
    6.7560   -0.4859   -0.0890 C   0  0  0  0  0  0  0  0  0  0  0  0
    8.0140    0.3645   -0.1631 C   0  0  0  0  0  0  0  0  0  0  0  0
  1  2  1  0  0  0  0 
  3  2  1  0  0  0  0 
  4  2  2  0  0  0  0 
  3  5  1  0  0  0  0 
  6  5  1  0  0  0  0 
  7  6  1  0  0  0  0 
  8  7  1  0  0  0  0 
  9  8  1  0  0  0  0 
  9 10  1  0  0  0  0 
 10 11  1  0  0  0  0 
 11 12  1  0  0  0  0 
 12 13  1  0  0  0  0 
 13 14  1  0  0  0  0 
M  END
> <Name>
n-Decyl Chloroformate

> <Source>
Chemidplus3DMolFile

> <Tox>
-1.590

> <CAS>
55488-51-2

$$$$

  CDK

 11 10  0  0  0  0  0  0  0  0999 V2000
    4.2381    0.0049    0.0000 O   0  0  0  0  0  0  0  0  0  0  0  0
    3.4132    0.0179    0.0000 C   0  0  0  0  0  0  0  0  0  0  0  0
    2.5883    0.0309    0.0000 C   0  0  0  0  0  0  0  0  0  0  0  0
    1.7634    0.0439    0.0000 C   0  0  0  0  0  0  0  0  0  0  0  0
    0.9385    0.0569    0.0000 C   0  0  0  0  0  0  0  0  0  0  0  0
    0.1136    0.0699    0.0000 C   0  0  0  0  0  0  0  0  0  0  0  0
   -0.7113    0.0829    0.0000 C   0  0  0  0  0  0  0  0  0  0  0  0
   -1.5362    0.0959    0.0000 C   0  0  0  0  0  0  0  0  0  0  0  0
   -2.3611    0.1089    0.0000 C   0  0  0  0  0  0  0  0  0  0  0  0
   -2.3741   -0.7160    0.0000 C   0  0  0  0  0  0  0  0  0  0  0  0
   -3.1860    0.1219    0.0000 C   0  0  0  0  0  0  0  0  0  0  0  0
  1  2  1  0  0  0  0 
  2  3  1  0  0  0  0 
  3  4  1  0  0  0  0 
  4  5  1  0  0  0  0 
  5  6  1  0  0  0  0 
  6  7  1  0  0  0  0 
  7  8  1  0  0  0  0 
  8  9  1  0  0  0  0 
  9 10  1  0  0  0  0 
  9 11  1  0  0  0  0 
M  END
> <Name>
8-MEHTYL-1-NONANOL

> <Source>
Smiles

> <Tox>
-1.684

> <CAS>
55505-26-5

$$$$

  CDK

 15 16  0  0  0  0  0  0  0  0999 V2000
    3.4627    2.0575    0.0000 O   0  0  0  0  0  0  0  0  0  0  0  0
    2.6095    1.5557    0.0000 C   0  0  0  0  0  0  0  0  0  0  0  0
    4.3660    1.5055    0.0000 C   0  0  0  0  0  0  0  0  0  0  0  0
    1.7062    2.0073    0.0000 C   0  0  0  0  0  0  0  0  0  0  0  0
    2.6095    0.5018    0.0000 C   0  0  0  0  0  0  0  0  0  0  0  0
    4.3660    0.5520    0.0000 C   0  0  0  0  0  0  0  0  0  0  0  0
    5.2191    2.0073    0.0000 C   0  0  0  0  0  0  0  0  0  0  0  0
    0.8531    1.5055    0.0000 C   0  0  0  0  0  0  0  0  0  0  0  0
    1.7564    0.0000    0.0000 C   0  0  0  0  0  0  0  0  0  0  0  0
    5.2191    0.0502    0.0000 C   0  0  0  0  0  0  0  0  0  0  0  0
    6.0722    1.5557    0.0000 C   0  0  0  0  0  0  0  0  0  0  0  0
    0.0000    2.0073    0.0000 Cl  0  0  0  0  0  0  0  0  0  0  0  0
    0.8531    0.5018    0.0000 C   0  0  0  0  0  0  0  0  0  0  0  0
    6.0722    0.5520    0.0000 C   0  0  0  0  0  0  0  0  0  0  0  0
    0.0000    0.0000    0.0000 Cl  0  0  0  0  0  0  0  0  0  0  0  0
  1  2  1  0  0  0  0 
  1  3  1  0  0  0  0 
  4  2  2  0  0  0  0 
  2  5  1  0  0  0  0 
  6  3  2  0  0  0  0 
  3  7  1  0  0  0  0 
  8  4  1  0  0  0  0 
  5  9  2  0  0  0  0 
 10  6  1  0  0  0  0 
  7 11  2  0  0  0  0 
  8 12  1  0  0  0  0 
 13  8  2  0  0  0  0 
  9 13  1  0  0  0  0 
 14 10  2  0  0  0  0 
 11 14  1  0  0  0  0 
 13 15  1  0  0  0  0 
M  END
> <Name>
3,4-Dichlorodiphenyl ether

> <Source>
NIST2DMolFile

> <Tox>
-3.185

> <CAS>
55538-69-7

$$$$

  CDK

 15 15  0  0  0  0  0  0  0  0999 V2000
    0.0000    4.5833    0.0000 C   0  0  0  0  0  0  0  0  0  0  0  0
    1.2500    5.1249    0.0000 N   0  0  0  0  0  0  0  0  0  0  0  0
    1.3750    6.4999    0.0000 C   0  0  0  0  0  0  0  0  0  0  0  0
    2.3750    4.3333    0.0000 C   0  0  0  0  0  0  0  0  0  0  0  0
    3.6666    4.8749    0.0000 O   0  0  0  0  0  0  0  0  0  0  0  0
    2.2083    2.9166    0.0000 N   0  0  0  0  0  0  0  0  0  0  0  0
    3.3333    2.0833    0.0000 C   0  0  0  0  0  0  0  0  0  0  0  0
    4.7082    2.5000    0.0000 C   0  0  0  0  0  0  0  0  0  0  0  0
    3.3333    0.7083    0.0000 N   0  0  0  0  0  0  0  0  0  0  0  0
    5.5416    1.3750    0.0000 C   0  0  0  0  0  0  0  0  0  0  0  0
    4.7082    0.2917    0.0000 O   0  0  0  0  0  0  0  0  0  0  0  0
    6.9165    1.3750    0.0000 C   0  0  0  0  0  0  0  0  0  0  0  0
    6.9165    2.7916    0.0000 C   0  0  0  0  0  0  0  0  0  0  0  0
    8.3332    1.3750    0.0000 C   0  0  0  0  0  0  0  0  0  0  0  0
    6.9165    0.0000    0.0000 C   0  0  0  0  0  0  0  0  0  0  0  0
  1  2  1  0  0  0  0 
  2  3  1  0  0  0  0 
  2  4  1  0  0  0  0 
  4  5  2  0  0  0  0 
  4  6  1  0  0  0  0 
  6  7  1  0  0  0  0 
  7  8  1  0  0  0  0 
  7  9  2  0  0  0  0 
  8 10  2  0  0  0  0 
 11  9  1  0  0  0  0 
 10 11  1  0  0  0  0 
 10 12  1  0  0  0  0 
 12 13  1  0  0  0  0 
 12 14  1  0  0  0  0 
 12 15  1  0  0  0  0 
M  END
> <Name>
ISOURON

> <Source>
IndexNet2DMolFile

> <Tox>
-6.417

> <CAS>
55861-78-4

$$$$

  CDK

 22 23  0  0  0  0  0  0  0  0999 V2000
    7.1431   -1.3463    0.0000 C   0  0  0  0  0  0  0  0  0  0  0  0
    8.4672   -1.3463    0.0000 C   0  0  0  0  0  0  0  0  0  0  0  0
    5.8080   -1.3463    0.0000 C   0  0  0  0  0  0  0  0  0  0  0  0
    7.1431   -2.6703    0.0000 C   0  0  0  0  0  0  0  0  0  0  0  0
    7.1431   -0.0000    0.0000 O   0  0  0  0  0  0  0  0  0  0  0  0
    9.1347   -2.4812    0.0000 C   0  0  0  0  0  0  0  0  0  0  0  0
    9.1347   -0.1891    0.0000 C   0  0  0  0  0  0  0  0  0  0  0  0
    5.1626   -2.4812    0.0000 C   0  0  0  0  0  0  0  0  0  0  0  0
    5.1626   -0.1891    0.0000 C   0  0  0  0  0  0  0  0  0  0  0  0
    8.2891   -3.3379    0.0000 C   0  0  0  0  0  0  0  0  0  0  0  0
    5.9860   -3.3379    0.0000 C   0  0  0  0  0  0  0  0  0  0  0  0
   10.4699   -2.4812    0.0000 N   0  0  0  0  0  0  0  0  0  0  0  0
   10.4699   -0.1891    0.0000 N   0  0  0  0  0  0  0  0  0  0  0  0
    3.8163   -2.4812    0.0000 C   0  0  0  0  0  0  0  0  0  0  0  0
    3.8163   -0.1891    0.0000 C   0  0  0  0  0  0  0  0  0  0  0  0
   11.1264   -1.3463    0.0000 C   0  0  0  0  0  0  0  0  0  0  0  0
    3.1376   -1.3463    0.0000 C   0  0  0  0  0  0  0  0  0  0  0  0
    1.8247   -1.3463    0.0000 O   0  0  0  0  0  0  0  0  0  0  0  0
    1.1571   -2.4812    0.0000 C   0  0  0  0  0  0  0  0  0  0  0  0
    0.4896   -3.6494    0.0000 F   0  0  0  0  0  0  0  0  0  0  0  0
    2.3143   -3.1599    0.0000 F   0  0  0  0  0  0  0  0  0  0  0  0
    0.0000   -1.8247    0.0000 F   0  0  0  0  0  0  0  0  0  0  0  0
  1  2  1  0  0  0  0 
  1  3  1  0  0  0  0 
  1  4  1  0  0  0  0 
  1  5  1  0  0  0  0 
  2  6  2  0  0  0  0 
  2  7  1  0  0  0  0 
  3  8  1  0  0  0  0 
  3  9  2  0  0  0  0 
  4 10  1  0  0  0  0 
  4 11  1  0  0  0  0 
 12  6  1  0  0  0  0 
 13  7  2  0  0  0  0 
  8 14  2  0  0  0  0 
  9 15  1  0  0  0  0 
 12 16  2  0  0  0  0 
 13 16  1  0  0  0  0 
 17 14  1  0  0  0  0 
 17 15  2  0  0  0  0 
 18 17  1  0  0  0  0 
 19 18  1  0  0  0  0 
 19 20  1  0  0  0  0 
 19 21  1  0  0  0  0 
 19 22  1  0  0  0  0 
M  END
> <Name>
FLURPRIMIDOL

> <Source>
DSSTox2DMolFile

> <Tox>
-6.439

> <CAS>
56425-91-3

$$$$

  CDK

 16 18  0  0  0  0  0  0  0  0999 V2000
   -0.1190    1.7071   -0.8372 C   0  0  0  0  0  0  0  0  0  0  0  0
   -1.4951    1.3226   -0.5481 C   0  0  0  0  0  0  0  0  0  0  0  0
   -0.1225    3.1211   -0.1481 C   0  0  0  0  0  0  0  0  0  0  0  0
    0.6976    0.6935   -0.1066 C   0  0  0  0  0  0  0  0  0  0  0  0
    0.2581    1.9123   -2.5562 Cl  0  0  0  0  0  0  0  0  0  0  0  0
   -1.8849    1.8575    0.6168 C   0  0  0  0  0  0  0  0  0  0  0  0
   -2.3987    0.2653   -1.4702 Cl  0  0  0  0  0  0  0  0  0  0  0  0
    1.2321    3.7188    0.3129 C   0  0  0  0  0  0  0  0  0  0  0  0
   -0.8514    2.7279    1.1448 C   0  0  0  0  0  0  0  0  0  0  0  0
    0.8253    0.8168    1.2405 C   0  0  0  0  0  0  0  0  0  0  0  0
    1.2986   -0.6398   -0.9201 Cl  0  0  0  0  0  0  0  0  0  0  0  0
   -3.3291    1.5768    1.3950 Cl  0  0  0  0  0  0  0  0  0  0  0  0
    1.4881    3.1197    1.7234 C   0  0  0  0  0  0  0  0  0  0  0  0
    0.3559    2.0603    1.8978 C   0  0  0  0  0  0  0  0  0  0  0  0
    1.5402   -0.3437    2.2077 Cl  0  0  0  0  0  0  0  0  0  0  0  0
    1.4582    4.3392    3.0026 Cl  0  0  0  0  0  0  0  0  0  0  0  0
  1  2  1  0  0  0  0 
  1  3  1  0  0  0  0 
  1  4  1  0  0  0  0 
  1  5  1  0  0  0  0 
  2  6  2  0  0  0  0 
  2  7  1  0  0  0  0 
  8  3  1  0  0  0  0 
  9  3  1  0  0  0  0 
  4 10  2  0  0  0  0 
  4 11  1  0  0  0  0 
  6  9  1  0  0  0  0 
  6 12  1  0  0  0  0 
 13  8  1  0  0  0  0 
  9 14  1  0  0  0  0 
 14 10  1  0  0  0  0 
 10 15  1  0  0  0  0 
 14 13  1  0  0  0  0 
 13 16  1  0  0  0  0 
M  END
> <Name>
alpha-Chlordene

> <Source>
Other

> <Tox>
-4.602

> <CAS>
56534-02-2

$$$$

  CDK

 16 18  0  0  0  0  0  0  0  0999 V2000
   -2.6790   -2.1273   -1.2810 Cl  0  0  0  0  0  0  0  0  0  0  0  0
   -1.7581   -0.6405   -0.9279 C   0  0  0  0  0  0  0  0  0  0  0  0
   -0.2502   -0.8753   -1.0063 C   0  0  0  0  0  0  0  0  0  0  0  0
   -1.8813   -0.2271    0.5453 C   0  0  0  0  0  0  0  0  0  0  0  0
    0.0873   -1.6813    0.2724 C   0  0  0  0  0  0  0  0  0  0  0  0
    0.5713    0.4559   -0.8398 C   0  0  0  0  0  0  0  0  0  0  0  0
   -0.9924   -1.2546    1.2915 C   0  0  0  0  0  0  0  0  0  0  0  0
   -1.2906    1.1632    0.6744 C   0  0  0  0  0  0  0  0  0  0  0  0
    1.4806   -1.2156    0.5427 C   0  0  0  0  0  0  0  0  0  0  0  0
    0.9373    1.0806   -2.4679 Cl  0  0  0  0  0  0  0  0  0  0  0  0
    1.7740   -0.0843   -0.1058 C   0  0  0  0  0  0  0  0  0  0  0  0
   -0.1654    1.4940    0.0105 C   0  0  0  0  0  0  0  0  0  0  0  0
   -2.1626    2.2475    1.6965 Cl  0  0  0  0  0  0  0  0  0  0  0  0
    2.5110   -2.1399    1.5304 Cl  0  0  0  0  0  0  0  0  0  0  0  0
    3.2688    0.7348   -0.0705 Cl  0  0  0  0  0  0  0  0  0  0  0  0
    0.5494    3.0700    0.1355 Cl  0  0  0  0  0  0  0  0  0  0  0  0
  1  2  1  0  0  0  0 
  3  2  1  0  0  0  0 
  4  2  1  0  0  0  0 
  3  5  1  0  0  0  0 
  3  6  1  0  0  0  0 
  4  7  1  0  0  0  0 
  4  8  1  0  0  0  0 
  5  7  1  0  0  0  0 
  5  9  1  0  0  0  0 
 10  6  1  0  0  0  0 
  6 11  1  0  0  0  0 
  6 12  1  0  0  0  0 
 13  8  1  0  0  0  0 
  8 12  2  0  0  0  0 
 14  9  1  0  0  0  0 
  9 11  2  0  0  0  0 
 15 11  1  0  0  0  0 
 16 12  1  0  0  0  0 
M  END
> <Name>
beta-Chlordene

> <Source>
Chemidplus3DMolFile

> <Tox>
-4.699

> <CAS>
56534-03-3

$$$$

  CDK

 16 16  0  0  0  0  0  0  0  0999 V2000
    3.4588   -2.3059    0.0000 P   0  0  0  0  0  0  0  0  0  0  0  0
    4.1141   -3.4588    0.0000 S   0  0  0  0  0  0  0  0  0  0  0  0
    2.3059   -2.9777    0.0000 O   0  0  0  0  0  0  0  0  0  0  0  0
    2.7869   -1.1529    0.0000 O   0  0  0  0  0  0  0  0  0  0  0  0
    4.6117   -1.6506    0.0000 O   0  0  0  0  0  0  0  0  0  0  0  0
    2.3059   -4.3048    0.0000 C   0  0  0  0  0  0  0  0  0  0  0  0
    3.4588   -0.0000    0.0000 C   0  0  0  0  0  0  0  0  0  0  0  0
    5.7647   -2.3059    0.0000 C   0  0  0  0  0  0  0  0  0  0  0  0
    3.4588   -4.9601    0.0000 C   0  0  0  0  0  0  0  0  0  0  0  0
    1.1529   -4.9601    0.0000 C   0  0  0  0  0  0  0  0  0  0  0  0
    3.4588   -6.2955    0.0000 C   0  0  0  0  0  0  0  0  0  0  0  0
    4.6117   -4.3048    0.0000 Cl  0  0  0  0  0  0  0  0  0  0  0  0
    1.1529   -6.2955    0.0000 C   0  0  0  0  0  0  0  0  0  0  0  0
    0.0000   -4.3048    0.0000 Cl  0  0  0  0  0  0  0  0  0  0  0  0
    2.3059   -6.9674    0.0000 C   0  0  0  0  0  0  0  0  0  0  0  0
    2.3059   -8.2945    0.0000 C   0  0  0  0  0  0  0  0  0  0  0  0
  1  2  2  0  0  0  0 
  1  3  1  0  0  0  0 
  1  4  1  0  0  0  0 
  1  5  1  0  0  0  0 
  3  6  1  0  0  0  0 
  4  7  1  0  0  0  0 
  5  8  1  0  0  0  0 
  6  9  2  0  0  0  0 
  6 10  1  0  0  0  0 
  9 11  1  0  0  0  0 
  9 12  1  0  0  0  0 
 10 13  2  0  0  0  0 
 10 14  1  0  0  0  0 
 11 15  2  0  0  0  0 
 13 15  1  0  0  0  0 
 15 16  1  0  0  0  0 
M  END
> <Name>
TOLCLOFOS-METHYL

> <Source>
DSSTox2DMolFile

> <Tox>
-3.367

> <CAS>
57018-04-9

$$$$

  CDK

 12 12  0  0  0  0  0  0  0  0999 V2000
   -0.9050    1.7626   -0.1238 C   0  0  0  0  0  0  0  0  0  0  0  0
   -1.4337    0.4537   -0.1511 C   0  0  0  0  0  0  0  0  0  0  0  0
    0.4805    1.9611   -0.0380 C   0  0  0  0  0  0  0  0  0  0  0  0
   -1.6657    2.8925   -0.1723 O   0  0  0  0  0  0  0  0  0  0  0  0
   -0.5692   -0.6463   -0.1068 C   0  0  0  0  0  0  0  0  0  0  0  0
   -2.8011    0.2809   -0.3389 O   0  0  0  0  0  0  0  0  0  0  0  0
    1.3215    0.8560    0.0159 C   0  0  0  0  0  0  0  0  0  0  0  0
    0.8085   -0.4426   -0.0195 C   0  0  0  0  0  0  0  0  0  0  0  0
   -1.1660   -2.2120   -0.1577 Cl  0  0  0  0  0  0  0  0  0  0  0  0
   -3.4936   -0.0787    0.8398 C   0  0  0  0  0  0  0  0  0  0  0  0
    2.9819    1.0828    0.1215 Cl  0  0  0  0  0  0  0  0  0  0  0  0
    1.8469   -1.7578    0.0393 Cl  0  0  0  0  0  0  0  0  0  0  0  0
  1  2  1  0  0  0  0 
  1  3  2  0  0  0  0 
  1  4  1  0  0  0  0 
  2  5  2  0  0  0  0 
  2  6  1  0  0  0  0 
  7  3  1  0  0  0  0 
  5  8  1  0  0  0  0 
  5  9  1  0  0  0  0 
  6 10  1  0  0  0  0 
  8  7  2  0  0  0  0 
  7 11  1  0  0  0  0 
  8 12  1  0  0  0  0 
M  END
> <Name>
3,4,5-TRICHLORO-2-METHOXYPHENOL

> <Source>
DougDB3DMolFile

> <Tox>
-3.046

> <CAS>
57057-83-7

$$$$

  CDK

 18 20  0  0  0  0  0  0  0  0999 V2000
    4.5883   -3.8023    0.0000 O   0  0  0  0  0  0  0  0  0  0  0  0
    5.6577   -2.9980    0.0000 C   0  0  0  0  0  0  0  0  0  0  0  0
    3.4915   -3.0528    0.0000 C   0  0  0  0  0  0  0  0  0  0  0  0
    5.2281   -1.7458    0.0000 C   0  0  0  0  0  0  0  0  0  0  0  0
    6.9556   -3.2539    0.0000 C   0  0  0  0  0  0  0  0  0  0  0  0
    3.8937   -1.7640    0.0000 C   0  0  0  0  0  0  0  0  0  0  0  0
    2.2119   -3.3361    0.0000 C   0  0  0  0  0  0  0  0  0  0  0  0
    6.0965   -0.7403    0.0000 C   0  0  0  0  0  0  0  0  0  0  0  0
    7.8422   -2.2667    0.0000 C   0  0  0  0  0  0  0  0  0  0  0  0
    7.3943   -4.5244    0.0000 Cl  0  0  0  0  0  0  0  0  0  0  0  0
    2.9797   -0.8043    0.0000 C   0  0  0  0  0  0  0  0  0  0  0  0
    1.2979   -2.3764    0.0000 C   0  0  0  0  0  0  0  0  0  0  0  0
    7.4126   -0.9963    0.0000 C   0  0  0  0  0  0  0  0  0  0  0  0
    9.1401   -2.5227    0.0000 Cl  0  0  0  0  0  0  0  0  0  0  0  0
    1.6818   -1.0968    0.0000 C   0  0  0  0  0  0  0  0  0  0  0  0
    0.0000   -2.6598    0.0000 Cl  0  0  0  0  0  0  0  0  0  0  0  0
    8.2718   -0.0000    0.0000 Cl  0  0  0  0  0  0  0  0  0  0  0  0
    0.7860   -0.1188    0.0000 Cl  0  0  0  0  0  0  0  0  0  0  0  0
  1  2  1  0  0  0  0 
  1  3  1  0  0  0  0 
  2  4  2  0  0  0  0 
  2  5  1  0  0  0  0 
  3  6  2  0  0  0  0 
  3  7  1  0  0  0  0 
  4  6  1  0  0  0  0 
  4  8  1  0  0  0  0 
  5  9  2  0  0  0  0 
  5 10  1  0  0  0  0 
  6 11  1  0  0  0  0 
 12  7  2  0  0  0  0 
 13  8  2  0  0  0  0 
  9 13  1  0  0  0  0 
  9 14  1  0  0  0  0 
 11 15  2  0  0  0  0 
 15 12  1  0  0  0  0 
 12 16  1  0  0  0  0 
 13 17  1  0  0  0  0 
 15 18  1  0  0  0  0 
M  END
> <Name>
2,3,4,7,8-PENTACHLORODIBENZOFURAN

> <Source>
DSSTox2DMolFile

> <Tox>
-8.580

> <CAS>
57117-31-4

$$$$

  CDK

 17 19  0  0  0  0  0  0  0  0999 V2000
    3.0923   -2.8334   -0.0008 Cl  0  0  0  0  0  0  0  0  0  0  0  0
    2.6035   -1.1916   -0.0003 C   0  0  0  0  0  0  0  0  0  0  0  0
    1.2612   -0.8165    0.0000 C   0  0  0  0  0  0  0  0  0  0  0  0
    3.5404   -0.1540   -0.0003 C   0  0  0  0  0  0  0  0  0  0  0  0
    0.2017   -1.6726    0.0002 O   0  0  0  0  0  0  0  0  0  0  0  0
    0.8194    0.5029    0.0001 C   0  0  0  0  0  0  0  0  0  0  0  0
    3.1389    1.1837    0.0002 C   0  0  0  0  0  0  0  0  0  0  0  0
   -0.9289   -0.9130    0.0002 C   0  0  0  0  0  0  0  0  0  0  0  0
   -0.6048    0.4402    0.0002 C   0  0  0  0  0  0  0  0  0  0  0  0
    1.7810    1.5302    0.0002 C   0  0  0  0  0  0  0  0  0  0  0  0
    4.3292    2.4302    0.0004 Cl  0  0  0  0  0  0  0  0  0  0  0  0
   -2.2333   -1.4045    0.0003 C   0  0  0  0  0  0  0  0  0  0  0  0
   -1.6530    1.3789    0.0003 C   0  0  0  0  0  0  0  0  0  0  0  0
   -3.2576   -0.4533    0.0003 C   0  0  0  0  0  0  0  0  0  0  0  0
   -2.9752    0.9146    0.0001 C   0  0  0  0  0  0  0  0  0  0  0  0
   -4.8840   -1.0490    0.0005 Cl  0  0  0  0  0  0  0  0  0  0  0  0
   -4.2308    2.1073   -0.0016 Cl  0  0  0  0  0  0  0  0  0  0  0  0
  1  2  1  0  0  0  0 
  3  2  1  0  0  0  0 
  2  4  2  0  0  0  0 
  5  3  1  0  0  0  0 
  6  3  2  0  0  0  0 
  7  4  1  0  0  0  0 
  5  8  1  0  0  0  0 
  9  6  1  0  0  0  0 
  6 10  1  0  0  0  0 
 11  7  1  0  0  0  0 
 10  7  2  0  0  0  0 
  9  8  1  0  0  0  0 
  8 12  2  0  0  0  0 
  9 13  2  0  0  0  0 
 12 14  1  0  0  0  0 
 13 15  1  0  0  0  0 
 16 14  1  0  0  0  0 
 15 14  2  0  0  0  0 
 17 15  1  0  0  0  0 
M  END
> <Name>
DIBENZOFURAN, 2,3,6,8-TETRACHLORO-

> <Source>
Chemidplus3DMolFile

> <Tox>
-7.710

> <CAS>
57117-37-0

$$$$

  CDK

 17 19  0  0  0  0  0  0  0  0999 V2000
    3.0928   -2.2633   -0.0020 Cl  0  0  0  0  0  0  0  0  0  0  0  0
    2.4976   -0.6489    0.0000 C   0  0  0  0  0  0  0  0  0  0  0  0
    1.1244   -0.4105    0.0001 C   0  0  0  0  0  0  0  0  0  0  0  0
    3.3256    0.4774   -0.0002 C   0  0  0  0  0  0  0  0  0  0  0  0
    0.1561   -1.3686    0.0005 O   0  0  0  0  0  0  0  0  0  0  0  0
    0.5524    0.8579   -0.0002 C   0  0  0  0  0  0  0  0  0  0  0  0
    5.0509    0.3286    0.0017 Cl  0  0  0  0  0  0  0  0  0  0  0  0
    2.7918    1.7680   -0.0001 C   0  0  0  0  0  0  0  0  0  0  0  0
   -1.0450   -0.7263    0.0001 C   0  0  0  0  0  0  0  0  0  0  0  0
   -0.8583    0.6525   -0.0002 C   0  0  0  0  0  0  0  0  0  0  0  0
    1.4061    1.9765   -0.0003 C   0  0  0  0  0  0  0  0  0  0  0  0
   -2.2934   -1.3463    0.0003 C   0  0  0  0  0  0  0  0  0  0  0  0
   -1.9954    1.4814   -0.0004 C   0  0  0  0  0  0  0  0  0  0  0  0
   -2.4660   -3.0507    0.0007 Cl  0  0  0  0  0  0  0  0  0  0  0  0
   -3.4080   -0.5027    0.0000 C   0  0  0  0  0  0  0  0  0  0  0  0
   -3.2644    0.8867   -0.0006 C   0  0  0  0  0  0  0  0  0  0  0  0
   -4.6672    1.8882    0.0004 Cl  0  0  0  0  0  0  0  0  0  0  0  0
  1  2  1  0  0  0  0 
  3  2  1  0  0  0  0 
  2  4  2  0  0  0  0 
  5  3  1  0  0  0  0 
  6  3  2  0  0  0  0 
  7  4  1  0  0  0  0 
  8  4  1  0  0  0  0 
  5  9  1  0  0  0  0 
  6 10  1  0  0  0  0 
  6 11  1  0  0  0  0 
 11  8  2  0  0  0  0 
 10  9  2  0  0  0  0 
  9 12  1  0  0  0  0 
 10 13  1  0  0  0  0 
 14 12  1  0  0  0  0 
 12 15  2  0  0  0  0 
 13 16  2  0  0  0  0 
 16 15  1  0  0  0  0 
 17 16  1  0  0  0  0 
M  END
> <Name>
DIBENZOFURAN, 2,4,6,7-TETRACHLORO-

> <Source>
Chemidplus3DMolFile

> <Tox>
-7.481

> <CAS>
57117-38-1

$$$$

  CDK

 18 20  0  0  0  0  0  0  0  0999 V2000
   -1.6468    2.8162   -0.0017 Cl  0  0  0  0  0  0  0  0  0  0  0  0
   -1.8190    1.1139   -0.0001 C   0  0  0  0  0  0  0  0  0  0  0  0
   -0.6410    0.3443   -0.0001 C   0  0  0  0  0  0  0  0  0  0  0  0
   -3.0559    0.4551   -0.0005 C   0  0  0  0  0  0  0  0  0  0  0  0
    0.7574    0.6215    0.0000 C   0  0  0  0  0  0  0  0  0  0  0  0
   -0.7569   -1.0423   -0.0001 C   0  0  0  0  0  0  0  0  0  0  0  0
   -4.5200    1.3978    0.0019 Cl  0  0  0  0  0  0  0  0  0  0  0  0
   -3.1283   -0.9398   -0.0003 C   0  0  0  0  0  0  0  0  0  0  0  0
    1.3934   -0.6160    0.0000 C   0  0  0  0  0  0  0  0  0  0  0  0
    1.5527    1.7823    0.0002 C   0  0  0  0  0  0  0  0  0  0  0  0
    0.4754   -1.6223    0.0001 O   0  0  0  0  0  0  0  0  0  0  0  0
   -1.9720   -1.7253   -0.0001 C   0  0  0  0  0  0  0  0  0  0  0  0
   -4.6409   -1.7868    0.0000 Cl  0  0  0  0  0  0  0  0  0  0  0  0
    2.7771   -0.7839   -0.0001 C   0  0  0  0  0  0  0  0  0  0  0  0
    2.9473    1.6450    0.0005 C   0  0  0  0  0  0  0  0  0  0  0  0
    3.4545   -2.3656   -0.0002 Cl  0  0  0  0  0  0  0  0  0  0  0  0
    3.5464    0.3834    0.0001 C   0  0  0  0  0  0  0  0  0  0  0  0
    5.2769    0.3225    0.0003 Cl  0  0  0  0  0  0  0  0  0  0  0  0
  1  2  1  0  0  0  0 
  3  2  2  0  0  0  0 
  2  4  1  0  0  0  0 
  3  5  1  0  0  0  0 
  3  6  1  0  0  0  0 
  7  4  1  0  0  0  0 
  4  8  2  0  0  0  0 
  5  9  2  0  0  0  0 
  5 10  1  0  0  0  0 
 11  6  1  0  0  0  0 
  6 12  2  0  0  0  0 
 13  8  1  0  0  0  0 
 12  8  1  0  0  0  0 
 11  9  1  0  0  0  0 
  9 14  1  0  0  0  0 
 10 15  2  0  0  0  0 
 16 14  1  0  0  0  0 
 14 17  2  0  0  0  0 
 15 17  1  0  0  0  0 
 18 17  1  0  0  0  0 
M  END
> <Name>
DIBENZOFURAN, 1,2,3,6,7-PENTACHLORO-

> <Source>
Chemidplus3DMolFile

> <Tox>
-8.648

> <CAS>
57117-42-7

$$$$

  CDK

 20 22  0  0  0  0  0  0  0  0999 V2000
    3.4547   -3.3166    0.0000 C   0  0  0  0  0  0  0  0  0  0  0  0
    3.4547   -1.9899    0.0000 C   0  0  0  0  0  0  0  0  0  0  0  0
    2.3032   -3.9891    0.0000 C   0  0  0  0  0  0  0  0  0  0  0  0
    4.6063   -3.9891    0.0000 O   0  0  0  0  0  0  0  0  0  0  0  0
    2.3032   -1.3266    0.0000 C   0  0  0  0  0  0  0  0  0  0  0  0
    4.6063   -1.3266    0.0000 O   0  0  0  0  0  0  0  0  0  0  0  0
    1.1516   -3.3166    0.0000 C   0  0  0  0  0  0  0  0  0  0  0  0
    2.3032   -5.3157    0.0000 Cl  0  0  0  0  0  0  0  0  0  0  0  0
    5.7579   -3.3166    0.0000 C   0  0  0  0  0  0  0  0  0  0  0  0
    1.1516   -1.9899    0.0000 C   0  0  0  0  0  0  0  0  0  0  0  0
    5.7579   -1.9899    0.0000 C   0  0  0  0  0  0  0  0  0  0  0  0
    0.0000   -3.9891    0.0000 Cl  0  0  0  0  0  0  0  0  0  0  0  0
    6.9095   -3.9891    0.0000 C   0  0  0  0  0  0  0  0  0  0  0  0
    0.0000   -1.3266    0.0000 Cl  0  0  0  0  0  0  0  0  0  0  0  0
    6.9095   -1.3266    0.0000 C   0  0  0  0  0  0  0  0  0  0  0  0
    8.0611   -3.3166    0.0000 C   0  0  0  0  0  0  0  0  0  0  0  0
    8.0611   -1.9899    0.0000 C   0  0  0  0  0  0  0  0  0  0  0  0
    6.9095   -0.0000    0.0000 Cl  0  0  0  0  0  0  0  0  0  0  0  0
    9.2127   -3.9891    0.0000 Cl  0  0  0  0  0  0  0  0  0  0  0  0
    9.2127   -1.3266    0.0000 Cl  0  0  0  0  0  0  0  0  0  0  0  0
  1  2  1  0  0  0  0 
  1  3  2  0  0  0  0 
  1  4  1  0  0  0  0 
  2  5  2  0  0  0  0 
  2  6  1  0  0  0  0 
  3  7  1  0  0  0  0 
  3  8  1  0  0  0  0 
  4  9  1  0  0  0  0 
  5 10  1  0  0  0  0 
 11  6  1  0  0  0  0 
  7 10  2  0  0  0  0 
  7 12  1  0  0  0  0 
 13  9  1  0  0  0  0 
  9 11  2  0  0  0  0 
 10 14  1  0  0  0  0 
 15 11  1  0  0  0  0 
 16 13  2  0  0  0  0 
 17 15  2  0  0  0  0 
 15 18  1  0  0  0  0 
 16 17  1  0  0  0  0 
 16 19  1  0  0  0  0 
 17 20  1  0  0  0  0 
M  END
> <Name>
1,2,3,6,7,8-HEXACHLORODIBENZO-P-DIOXIN

> <Source>
DSSTox2DMolFile

> <Tox>
-10.444

> <CAS>
57653-85-7

$$$$

  CDK

 20 20  0  0  0  0  0  0  0  0999 V2000
    3.4691   -3.3101    0.0000 N   0  0  0  0  0  0  0  0  0  0  0  0
    2.3150   -3.9735    0.0000 C   0  0  0  0  0  0  0  0  0  0  0  0
    4.6162   -3.9735    0.0000 C   0  0  0  0  0  0  0  0  0  0  0  0
    3.4691   -1.9971    0.0000 C   0  0  0  0  0  0  0  0  0  0  0  0
    2.3150   -5.3142    0.0000 C   0  0  0  0  0  0  0  0  0  0  0  0
    1.1541   -3.3101    0.0000 C   0  0  0  0  0  0  0  0  0  0  0  0
    4.6162   -5.3142    0.0000 O   0  0  0  0  0  0  0  0  0  0  0  0
    5.7565   -3.3101    0.0000 C   0  0  0  0  0  0  0  0  0  0  0  0
    4.6162   -1.3268    0.0000 C   0  0  0  0  0  0  0  0  0  0  0  0
    2.3150   -1.3268    0.0000 C   0  0  0  0  0  0  0  0  0  0  0  0
    1.1541   -5.9707    0.0000 C   0  0  0  0  0  0  0  0  0  0  0  0
    3.4691   -5.9707    0.0000 C   0  0  0  0  0  0  0  0  0  0  0  0
    0.0000   -3.9735    0.0000 C   0  0  0  0  0  0  0  0  0  0  0  0
    1.1541   -1.9971    0.0000 C   0  0  0  0  0  0  0  0  0  0  0  0
    6.9105   -3.9735    0.0000 O   0  0  0  0  0  0  0  0  0  0  0  0
    4.6162   -0.0000    0.0000 O   0  0  0  0  0  0  0  0  0  0  0  0
    5.7565   -1.9971    0.0000 O   0  0  0  0  0  0  0  0  0  0  0  0
    0.0000   -5.3142    0.0000 C   0  0  0  0  0  0  0  0  0  0  0  0
    6.9105   -5.3142    0.0000 C   0  0  0  0  0  0  0  0  0  0  0  0
    6.9105   -1.3268    0.0000 C   0  0  0  0  0  0  0  0  0  0  0  0
  1  2  1  0  0  0  0 
  1  3  1  0  0  0  0 
  1  4  1  0  0  0  0 
  2  5  2  0  0  0  0 
  2  6  1  0  0  0  0 
  3  7  2  0  0  0  0 
  3  8  1  0  0  0  0 
  4  9  1  0  0  0  0 
  4 10  1  0  0  0  0 
  5 11  1  0  0  0  0 
  5 12  1  0  0  0  0 
  6 13  2  0  0  0  0 
  6 14  1  0  0  0  0 
  8 15  1  0  0  0  0 
  9 16  2  0  0  0  0 
  9 17  1  0  0  0  0 
 18 11  2  0  0  0  0 
 18 13  1  0  0  0  0 
 15 19  1  0  0  0  0 
 17 20  1  0  0  0  0 
M  END
> <Name>
METALAXYL

> <Source>
DSSTox2DMolFile

> <Tox>
-5.250

> <CAS>
57837-19-1

$$$$

  CDK

 22 24  0  0  0  0  0  0  0  0999 V2000
   -0.5013    2.2546   -0.0030 O   0  0  0  0  0  0  0  0  0  0  0  0
   -0.8015    1.0675   -0.0006 C   0  0  0  0  0  0  0  0  0  0  0  0
    0.2062   -0.0126   -0.0006 C   0  0  0  0  0  0  0  0  0  0  0  0
   -2.2350    0.7108   -0.0001 C   0  0  0  0  0  0  0  0  0  0  0  0
   -0.1905   -1.3515   -0.0006 C   0  0  0  0  0  0  0  0  0  0  0  0
    1.5680    0.3122   -0.0003 C   0  0  0  0  0  0  0  0  0  0  0  0
   -2.6317   -0.6282    0.0002 C   0  0  0  0  0  0  0  0  0  0  0  0
   -3.2001    1.7250   -0.0001 C   0  0  0  0  0  0  0  0  0  0  0  0
   -1.6240   -1.7082    0.0002 C   0  0  0  0  0  0  0  0  0  0  0  0
    0.7747   -2.3657   -0.0008 C   0  0  0  0  0  0  0  0  0  0  0  0
    2.0366    1.6620    0.0005 N   0  0  0  0  0  0  0  0  0  0  0  0
    2.5265   -0.7016    0.0000 C   0  0  0  0  0  0  0  0  0  0  0  0
   -3.9936   -0.9530    0.0009 C   0  0  0  0  0  0  0  0  0  0  0  0
   -4.5562    1.3969    0.0007 C   0  0  0  0  0  0  0  0  0  0  0  0
   -1.9720   -2.8825   -0.0007 O   0  0  0  0  0  0  0  0  0  0  0  0
    2.1307   -2.0376   -0.0005 C   0  0  0  0  0  0  0  0  0  0  0  0
    2.2327    2.2289   -1.0967 O   0  0  0  0  0  0  0  0  0  0  0  0
    2.2331    2.2274    1.0985 O   0  0  0  0  0  0  0  0  0  0  0  0
    3.9226   -0.4158    0.0005 N   0  0  0  0  0  0  0  0  0  0  0  0
   -4.9521    0.0608    0.0014 C   0  0  0  0  0  0  0  0  0  0  0  0
    4.5136   -0.2944   -1.0970 O   0  0  0  0  0  0  0  0  0  0  0  0
    4.5130   -0.2948    1.0982 O   0  0  0  0  0  0  0  0  0  0  0  0
  1  2  2  0  0  0  0 
  3  2  1  0  0  0  0 
  4  2  1  0  0  0  0 
  3  5  2  0  0  0  0 
  3  6  1  0  0  0  0 
  4  7  1  0  0  0  0 
  4  8  2  0  0  0  0 
  5  9  1  0  0  0  0 
  5 10  1  0  0  0  0 
 11  6  1  0  0  0  0 
  6 12  2  0  0  0  0 
  7  9  1  0  0  0  0 
  7 13  2  0  0  0  0 
  8 14  1  0  0  0  0 
 15  9  2  0  0  0  0 
 10 16  2  0  0  0  0 
 17 11  1  0  0  0  0 
 18 11  2  0  0  0  0 
 19 12  1  0  0  0  0 
 12 16  1  0  0  0  0 
 13 20  1  0  0  0  0 
 14 20  2  0  0  0  0 
 21 19  1  0  0  0  0 
 22 19  2  0  0  0  0 
M  CHG  1  11   1
M  CHG  1  17  -1
M  CHG  1  19   1
M  CHG  1  21  -1
M  END
> <Name>
1,2-DINITROANTHRAQUINONE

> <Source>
Chemidplus3DMolFile

> <Tox>
-11.155

> <CAS>
57875-61-3

$$$$

  CDK

 12 11  0  0  0  0  0  0  0  0999 V2000
    2.6354   -0.1985    0.0000 F   0  0  0  0  0  0  0  0  0  0  0  0
    1.8104   -0.1985    0.0000 C   0  0  0  0  0  0  0  0  0  0  0  0
    1.8104   -1.0235    0.0000 F   0  0  0  0  0  0  0  0  0  0  0  0
    1.8104    0.6265    0.0000 F   0  0  0  0  0  0  0  0  0  0  0  0
    0.9854   -0.1985    0.0000 C   0  0  0  0  0  0  0  0  0  0  0  0
    0.9854   -1.0235    0.0000 F   0  0  0  0  0  0  0  0  0  0  0  0
    0.1604   -0.1985    0.0000 C   0  0  0  0  0  0  0  0  0  0  0  0
    0.1604   -1.0235    0.0000 F   0  0  0  0  0  0  0  0  0  0  0  0
    0.1604    0.6265    0.0000 F   0  0  0  0  0  0  0  0  0  0  0  0
   -0.6646   -0.1985    0.0000 C   0  0  0  0  0  0  0  0  0  0  0  0
   -1.4896   -0.1985    0.0000 O   0  0  0  0  0  0  0  0  0  0  0  0
   -1.9021    0.5160    0.0000 C   0  0  0  0  0  0  0  0  0  0  0  0
  1  2  1  0  0  0  0 
  2  3  1  0  0  0  0 
  2  4  1  0  0  0  0 
  2  5  1  0  0  0  0 
  5  6  1  0  0  0  0 
  5  7  1  0  0  0  0 
  7  8  1  0  0  0  0 
  7  9  1  0  0  0  0 
  7 10  1  0  0  0  0 
 10 11  1  0  0  0  0 
 11 12  1  0  0  0  0 
M  END
> <Name>
1,1,1,2,3,3-Hexafluoro-4-methoxybutane

> <Source>
Smiles

> <Tox>
1.785

> <CAS>
58705-93-4

$$$$

  CDK

 19 21  0  0  0  0  0  0  0  0999 V2000
   -2.5342   -2.9077   -0.0021 Cl  0  0  0  0  0  0  0  0  0  0  0  0
   -2.4530   -1.1743    0.0002 C   0  0  0  0  0  0  0  0  0  0  0  0
   -1.2080   -0.5463    0.0001 C   0  0  0  0  0  0  0  0  0  0  0  0
   -3.6154   -0.4028    0.0003 C   0  0  0  0  0  0  0  0  0  0  0  0
   -0.0922   -1.3444    0.0001 O   0  0  0  0  0  0  0  0  0  0  0  0
   -1.1245    0.8452    0.0000 C   0  0  0  0  0  0  0  0  0  0  0  0
   -5.1953   -1.1084    0.0018 Cl  0  0  0  0  0  0  0  0  0  0  0  0
   -3.5317    0.9908    0.0003 C   0  0  0  0  0  0  0  0  0  0  0  0
    1.1111   -0.6856    0.0002 C   0  0  0  0  0  0  0  0  0  0  0  0
    0.0788    1.5042   -0.0002 O   0  0  0  0  0  0  0  0  0  0  0  0
   -2.2853    1.6176    0.0001 C   0  0  0  0  0  0  0  0  0  0  0  0
    1.1947    0.7061   -0.0001 C   0  0  0  0  0  0  0  0  0  0  0  0
    2.2721   -1.4579    0.0004 C   0  0  0  0  0  0  0  0  0  0  0  0
   -2.2220    3.3426   -0.0015 Cl  0  0  0  0  0  0  0  0  0  0  0  0
    2.4398    1.3339   -0.0002 C   0  0  0  0  0  0  0  0  0  0  0  0
    3.5186   -0.8311    0.0004 C   0  0  0  0  0  0  0  0  0  0  0  0
    3.6022    0.5624    0.0000 C   0  0  0  0  0  0  0  0  0  0  0  0
    4.9253   -1.8363   -0.0007 Cl  0  0  0  0  0  0  0  0  0  0  0  0
    5.1190    1.3921    0.0010 Cl  0  0  0  0  0  0  0  0  0  0  0  0
  1  2  1  0  0  0  0 
  3  2  1  0  0  0  0 
  2  4  2  0  0  0  0 
  5  3  1  0  0  0  0 
  3  6  2  0  0  0  0 
  7  4  1  0  0  0  0 
  4  8  1  0  0  0  0 
  5  9  1  0  0  0  0 
 10  6  1  0  0  0  0 
  6 11  1  0  0  0  0 
 11  8  2  0  0  0  0 
  9 12  1  0  0  0  0 
  9 13  2  0  0  0  0 
 10 12  1  0  0  0  0 
 14 11  1  0  0  0  0 
 12 15  2  0  0  0  0 
 13 16  1  0  0  0  0 
 15 17  1  0  0  0  0 
 18 16  1  0  0  0  0 
 16 17  2  0  0  0  0 
 19 17  1  0  0  0  0 
M  END
> <Name>
1,2,4,7,8-PENTACHLORODIBENZO-P-DIOXIN

> <Source>
Chemidplus3DMolFile

> <Tox>
-9.233

> <CAS>
58802-08-7

$$$$

  CDK

 18 20  0  0  0  0  0  0  0  0999 V2000
   -1.2664    2.9258   -0.0004 Cl  0  0  0  0  0  0  0  0  0  0  0  0
   -1.7621    1.2897    0.0000 C   0  0  0  0  0  0  0  0  0  0  0  0
   -0.7612    0.3008    0.0000 C   0  0  0  0  0  0  0  0  0  0  0  0
   -3.1055    0.8906   -0.0001 C   0  0  0  0  0  0  0  0  0  0  0  0
    0.6644    0.2938   -0.0001 C   0  0  0  0  0  0  0  0  0  0  0  0
   -1.1511   -1.0349    0.0003 C   0  0  0  0  0  0  0  0  0  0  0  0
   -4.3911    2.0498   -0.0005 Cl  0  0  0  0  0  0  0  0  0  0  0  0
   -3.4545   -0.4619    0.0004 C   0  0  0  0  0  0  0  0  0  0  0  0
    1.0411   -1.0456    0.0001 C   0  0  0  0  0  0  0  0  0  0  0  0
    1.6751    1.2728   -0.0002 C   0  0  0  0  0  0  0  0  0  0  0  0
   -0.0590   -1.8488    0.0005 O   0  0  0  0  0  0  0  0  0  0  0  0
   -2.4779   -1.4620    0.0006 C   0  0  0  0  0  0  0  0  0  0  0  0
    2.3635   -1.4859   -0.0001 C   0  0  0  0  0  0  0  0  0  0  0  0
    3.0144    0.8603   -0.0001 C   0  0  0  0  0  0  0  0  0  0  0  0
   -2.9019   -3.1219   -0.0004 Cl  0  0  0  0  0  0  0  0  0  0  0  0
    3.3500   -0.4954   -0.0003 C   0  0  0  0  0  0  0  0  0  0  0  0
    4.2237    2.1005    0.0012 Cl  0  0  0  0  0  0  0  0  0  0  0  0
    4.9984   -1.0277   -0.0007 Cl  0  0  0  0  0  0  0  0  0  0  0  0
  1  2  1  0  0  0  0 
  3  2  1  0  0  0  0 
  2  4  2  0  0  0  0 
  3  5  1  0  0  0  0 
  3  6  2  0  0  0  0 
  7  4  1  0  0  0  0 
  4  8  1  0  0  0  0 
  5  9  1  0  0  0  0 
  5 10  2  0  0  0  0 
 11  6  1  0  0  0  0 
  6 12  1  0  0  0  0 
 12  8  2  0  0  0  0 
 11  9  1  0  0  0  0 
  9 13  2  0  0  0  0 
 10 14  1  0  0  0  0 
 15 12  1  0  0  0  0 
 13 16  1  0  0  0  0 
 17 14  1  0  0  0  0 
 14 16  2  0  0  0  0 
 18 16  1  0  0  0  0 
M  END
> <Name>
1,2,4,7,8-PENTACHLORODIBENZOFURAN

> <Source>
Chemidplus3DMolFile

> <Tox>
-8.824

> <CAS>
58802-15-6

$$$$

  CDK

 17 19  0  0  0  0  0  0  0  0999 V2000
    1.7083    2.5825   -0.0033 Cl  0  0  0  0  0  0  0  0  0  0  0  0
    2.0350    0.9045    0.0012 C   0  0  0  0  0  0  0  0  0  0  0  0
    0.9389    0.0221    0.0005 C   0  0  0  0  0  0  0  0  0  0  0  0
    3.3309    0.3711    0.0011 C   0  0  0  0  0  0  0  0  0  0  0  0
   -0.4801    0.1596    0.0005 C   0  0  0  0  0  0  0  0  0  0  0  0
    1.1914   -1.3462   -0.0002 C   0  0  0  0  0  0  0  0  0  0  0  0
    4.7281    1.3932    0.0004 Cl  0  0  0  0  0  0  0  0  0  0  0  0
    3.5410   -1.0096    0.0000 C   0  0  0  0  0  0  0  0  0  0  0  0
   -0.9906   -1.1348   -0.0002 C   0  0  0  0  0  0  0  0  0  0  0  0
   -1.3863    1.2360    0.0010 C   0  0  0  0  0  0  0  0  0  0  0  0
    0.0224   -2.0453   -0.0005 O   0  0  0  0  0  0  0  0  0  0  0  0
    2.4680   -1.9056   -0.0006 C   0  0  0  0  0  0  0  0  0  0  0  0
   -2.3510   -1.4387   -0.0004 C   0  0  0  0  0  0  0  0  0  0  0  0
   -2.7606    0.9616    0.0005 C   0  0  0  0  0  0  0  0  0  0  0  0
   -3.2319   -0.3533    0.0000 C   0  0  0  0  0  0  0  0  0  0  0  0
   -3.8379    2.3179    0.0004 Cl  0  0  0  0  0  0  0  0  0  0  0  0
   -4.9256   -0.7153   -0.0005 Cl  0  0  0  0  0  0  0  0  0  0  0  0
  1  2  1  0  0  0  0 
  3  2  1  0  0  0  0 
  2  4  2  0  0  0  0 
  5  3  1  0  0  0  0 
  3  6  2  0  0  0  0 
  7  4  1  0  0  0  0 
  4  8  1  0  0  0  0 
  5  9  1  0  0  0  0 
  5 10  2  0  0  0  0 
 11  6  1  0  0  0  0 
  6 12  1  0  0  0  0 
 12  8  2  0  0  0  0 
 11  9  1  0  0  0  0 
  9 13  2  0  0  0  0 
 10 14  1  0  0  0  0 
 13 15  1  0  0  0  0 
 16 14  1  0  0  0  0 
 14 15  2  0  0  0  0 
 17 15  1  0  0  0  0 
M  END
> <Name>
DIBENZOFURAN, 1,2,7,8-TETRACHLORO-

> <Source>
Chemidplus3DMolFile

> <Tox>
-7.745

> <CAS>
58802-20-3

$$$$

  CDK

 17 18  0  0  0  0  0  0  0  0999 V2000
   -1.1201   -3.0651    0.0017 Cl  0  0  0  0  0  0  0  0  0  0  0  0
   -1.0450   -1.3112    0.0005 C   0  0  0  0  0  0  0  0  0  0  0  0
    0.1200   -0.5271    0.0006 C   0  0  0  0  0  0  0  0  0  0  0  0
   -2.3054   -0.7133    0.0002 C   0  0  0  0  0  0  0  0  0  0  0  0
    0.0049    0.8835    0.0004 C   0  0  0  0  0  0  0  0  0  0  0  0
    1.3969   -1.1120    0.0009 C   0  0  0  0  0  0  0  0  0  0  0  0
   -3.7819   -1.6630   -0.0003 Cl  0  0  0  0  0  0  0  0  0  0  0  0
   -2.4187    0.6738    0.0000 C   0  0  0  0  0  0  0  0  0  0  0  0
   -1.2720    1.4684    0.0002 C   0  0  0  0  0  0  0  0  0  0  0  0
    1.1700    1.6676    0.0005 C   0  0  0  0  0  0  0  0  0  0  0  0
    1.7613   -2.8284   -0.0043 Cl  0  0  0  0  0  0  0  0  0  0  0  0
    2.5438   -0.3176    0.0009 C   0  0  0  0  0  0  0  0  0  0  0  0
   -3.9955    1.4276   -0.0007 Cl  0  0  0  0  0  0  0  0  0  0  0  0
   -1.4485    3.2102   -0.0012 Cl  0  0  0  0  0  0  0  0  0  0  0  0
    2.4305    1.0695    0.0007 C   0  0  0  0  0  0  0  0  0  0  0  0
    4.1592   -0.9952    0.0005 Cl  0  0  0  0  0  0  0  0  0  0  0  0
    3.8004    2.1324   -0.0008 Cl  0  0  0  0  0  0  0  0  0  0  0  0
  1  2  1  0  0  0  0 
  3  2  1  0  0  0  0 
  2  4  2  0  0  0  0 
  3  5  1  0  0  0  0 
  3  6  2  0  0  0  0 
  7  4  1  0  0  0  0 
  4  8  1  0  0  0  0 
  5  9  1  0  0  0  0 
  5 10  2  0  0  0  0 
 11  6  1  0  0  0  0 
  6 12  1  0  0  0  0 
 13  8  1  0  0  0  0 
  9  8  2  0  0  0  0 
 14  9  1  0  0  0  0 
 10 15  1  0  0  0  0 
 16 12  1  0  0  0  0 
 12 15  2  0  0  0  0 
 17 15  1  0  0  0  0 
M  END
> <Name>
1,2,3,4,5,6,7-HEPTACHLORONAPHTHALENE

> <Source>
Chemidplus3DMolFile

> <Tox>
-7.071

> <CAS>
58863-14-2

$$$$

  CDK

 16 17  0  0  0  0  0  0  0  0999 V2000
    1.5019   -3.4760   -3.2219 Cl  0  0  0  0  0  0  0  0  0  0  0  0
    2.9846   -2.6476   -2.9205 C   0  0  0  0  0  0  0  0  0  0  0  0
    3.0446   -1.5427   -2.0892 C   0  0  0  0  0  0  0  0  0  0  0  0
    4.1523   -3.1043   -3.5320 C   0  0  0  0  0  0  0  0  0  0  0  0
    1.9011   -1.0672   -1.4696 O   0  0  0  0  0  0  0  0  0  0  0  0
    4.2365   -0.8797   -1.8505 C   0  0  0  0  0  0  0  0  0  0  0  0
    5.3619   -2.4486   -3.3027 C   0  0  0  0  0  0  0  0  0  0  0  0
    1.8846   -1.0376   -0.1090 C   0  0  0  0  0  0  0  0  0  0  0  0
    5.4040   -1.3363   -2.4620 C   0  0  0  0  0  0  0  0  0  0  0  0
    6.8036   -3.0119   -4.0555 Cl  0  0  0  0  0  0  0  0  0  0  0  0
    2.3454   -2.1350    0.6180 C   0  0  0  0  0  0  0  0  0  0  0  0
    1.4066    0.0903    0.5583 C   0  0  0  0  0  0  0  0  0  0  0  0
    2.3282   -2.1048    2.0124 C   0  0  0  0  0  0  0  0  0  0  0  0
    1.3895    0.1206    1.9528 C   0  0  0  0  0  0  0  0  0  0  0  0
    1.8504   -0.9770    2.6799 C   0  0  0  0  0  0  0  0  0  0  0  0
    1.8291   -0.9398    4.4003 Cl  0  0  0  0  0  0  0  0  0  0  0  0
  1  2  1  0  0  0  0 
  3  2  2  0  0  0  0 
  2  4  1  0  0  0  0 
  5  3  1  0  0  0  0 
  3  6  1  0  0  0  0 
  4  7  2  0  0  0  0 
  5  8  1  0  0  0  0 
  6  9  2  0  0  0  0 
 10  7  1  0  0  0  0 
  9  7  1  0  0  0  0 
  8 11  2  0  0  0  0 
  8 12  1  0  0  0  0 
 11 13  1  0  0  0  0 
 12 14  2  0  0  0  0 
 13 15  2  0  0  0  0 
 14 15  1  0  0  0  0 
 16 15  1  0  0  0  0 
M  END
> <Name>
2,4,4'-Trichlorodiphenyl ether

> <Source>
Chemidplus3DMolFile

> <Tox>
-3.815

> <CAS>
59039-21-3

$$$$

  CDK

 21 20  0  0  0  0  0  0  0  0999 V2000
    5.7711   -3.3215    0.0000 C   0  0  0  0  0  0  0  0  0  0  0  0
    5.7711   -1.9929    0.0000 N   0  0  0  0  0  0  0  0  0  0  0  0
    6.9336   -1.3286    0.0000 S   0  0  0  0  0  0  0  0  0  0  0  0
    4.6224   -1.3286    0.0000 C   0  0  0  0  0  0  0  0  0  0  0  0
    8.0823   -1.9929    0.0000 N   0  0  0  0  0  0  0  0  0  0  0  0
    4.6224   -0.0000    0.0000 O   0  0  0  0  0  0  0  0  0  0  0  0
    3.4599   -1.9929    0.0000 O   0  0  0  0  0  0  0  0  0  0  0  0
    9.2310   -1.3286    0.0000 C   0  0  0  0  0  0  0  0  0  0  0  0
    8.0823   -3.3215    0.0000 C   0  0  0  0  0  0  0  0  0  0  0  0
    2.3112   -1.3286    0.0000 N   0  0  0  0  0  0  0  0  0  0  0  0
    9.2310   -0.0000    0.0000 O   0  0  0  0  0  0  0  0  0  0  0  0
   10.3797   -1.9929    0.0000 O   0  0  0  0  0  0  0  0  0  0  0  0
    1.1487   -1.9929    0.0000 C   0  0  0  0  0  0  0  0  0  0  0  0
   11.5283   -1.3286    0.0000 N   0  0  0  0  0  0  0  0  0  0  0  0
    0.0000   -1.3286    0.0000 S   0  0  0  0  0  0  0  0  0  0  0  0
    1.1487   -3.3215    0.0000 C   0  0  0  0  0  0  0  0  0  0  0  0
   12.6909   -1.9929    0.0000 C   0  0  0  0  0  0  0  0  0  0  0  0
    0.0000   -0.0000    0.0000 C   0  0  0  0  0  0  0  0  0  0  0  0
   13.8395   -1.3286    0.0000 S   0  0  0  0  0  0  0  0  0  0  0  0
   12.6909   -3.3215    0.0000 C   0  0  0  0  0  0  0  0  0  0  0  0
   13.8395   -0.0000    0.0000 C   0  0  0  0  0  0  0  0  0  0  0  0
  1  2  1  0  0  0  0 
  2  3  1  0  0  0  0 
  2  4  1  0  0  0  0 
  3  5  1  0  0  0  0 
  4  6  2  0  0  0  0 
  4  7  1  0  0  0  0 
  5  8  1  0  0  0  0 
  5  9  1  0  0  0  0 
  7 10  1  0  0  0  0 
  8 11  2  0  0  0  0 
  8 12  1  0  0  0  0 
 10 13  2  0  0  0  0 
 12 14  1  0  0  0  0 
 13 15  1  0  0  0  0 
 13 16  1  0  0  0  0 
 14 17  2  0  0  0  0 
 15 18  1  0  0  0  0 
 17 19  1  0  0  0  0 
 17 20  1  0  0  0  0 
 19 21  1  0  0  0  0 
M  END
> <Name>
THIODICARB

> <Source>
DSSTox2DMolFile

> <Tox>
-4.155

> <CAS>
59669-26-0

$$$$

  CDK

 24 26  0  0  0  0  0  0  0  0999 V2000
    7.1245   -5.7544    0.0000 N   0  0  0  0  0  0  0  0  0  0  0  0
    5.8033   -5.7544    0.0000 C   0  0  0  0  0  0  0  0  0  0  0  0
    7.7998   -4.5996    0.0000 C   0  0  0  0  0  0  0  0  0  0  0  0
    7.7998   -6.9092    0.0000 C   0  0  0  0  0  0  0  0  0  0  0  0
    5.1379   -4.5996    0.0000 C   0  0  0  0  0  0  0  0  0  0  0  0
    7.1245   -3.4448    0.0000 C   0  0  0  0  0  0  0  0  0  0  0  0
    5.8033   -3.4448    0.0000 C   0  0  0  0  0  0  0  0  0  0  0  0
    3.8069   -4.5996    0.0000 C   0  0  0  0  0  0  0  0  0  0  0  0
    7.7998   -2.3096    0.0000 C   0  0  0  0  0  0  0  0  0  0  0  0
    5.1379   -2.3096    0.0000 O   0  0  0  0  0  0  0  0  0  0  0  0
    3.1414   -5.7544    0.0000 C   0  0  0  0  0  0  0  0  0  0  0  0
    3.1414   -3.4448    0.0000 C   0  0  0  0  0  0  0  0  0  0  0  0
    7.1245   -1.1548    0.0000 C   0  0  0  0  0  0  0  0  0  0  0  0
    9.1307   -2.3096    0.0000 C   0  0  0  0  0  0  0  0  0  0  0  0
    1.8105   -5.7544    0.0000 C   0  0  0  0  0  0  0  0  0  0  0  0
    1.8105   -3.4448    0.0000 C   0  0  0  0  0  0  0  0  0  0  0  0
    7.7998   -0.0000    0.0000 C   0  0  0  0  0  0  0  0  0  0  0  0
    9.7864   -1.1548    0.0000 C   0  0  0  0  0  0  0  0  0  0  0  0
    1.1450   -4.5996    0.0000 C   0  0  0  0  0  0  0  0  0  0  0  0
    1.1450   -6.9092    0.0000 C   0  0  0  0  0  0  0  0  0  0  0  0
    9.1307   -0.0000    0.0000 C   0  0  0  0  0  0  0  0  0  0  0  0
    0.4795   -8.0640    0.0000 F   0  0  0  0  0  0  0  0  0  0  0  0
    2.2900   -7.5649    0.0000 F   0  0  0  0  0  0  0  0  0  0  0  0
    0.0000   -6.2535    0.0000 F   0  0  0  0  0  0  0  0  0  0  0  0
  1  2  1  0  0  0  0 
  1  3  1  0  0  0  0 
  1  4  1  0  0  0  0 
  2  5  2  0  0  0  0 
  3  6  2  0  0  0  0 
  5  7  1  0  0  0  0 
  5  8  1  0  0  0  0 
  6  7  1  0  0  0  0 
  6  9  1  0  0  0  0 
  7 10  2  0  0  0  0 
  8 11  2  0  0  0  0 
  8 12  1  0  0  0  0 
  9 13  2  0  0  0  0 
  9 14  1  0  0  0  0 
 11 15  1  0  0  0  0 
 12 16  2  0  0  0  0 
 13 17  1  0  0  0  0 
 14 18  2  0  0  0  0 
 15 19  2  0  0  0  0 
 15 20  1  0  0  0  0 
 16 19  1  0  0  0  0 
 17 21  2  0  0  0  0 
 18 21  1  0  0  0  0 
 20 22  1  0  0  0  0 
 20 23  1  0  0  0  0 
 20 24  1  0  0  0  0 
M  END
> <Name>
FLURIDONE

> <Source>
DSSTox2DMolFile

> <Tox>
-7.011

> <CAS>
59756-60-4

$$$$

  CDK

 22 24  0  0  0  0  0  0  0  0999 V2000
    4.0302   -2.3083    0.0000 C   0  0  0  0  0  0  0  0  0  0  0  0
    2.6620   -2.3083    0.0000 C   0  0  0  0  0  0  0  0  0  0  0  0
    4.0302   -3.6393    0.0000 C   0  0  0  0  0  0  0  0  0  0  0  0
    5.3240   -2.3083    0.0000 C   0  0  0  0  0  0  0  0  0  0  0  0
    4.0302   -0.9587    0.0000 O   0  0  0  0  0  0  0  0  0  0  0  0
    1.9918   -1.1728    0.0000 C   0  0  0  0  0  0  0  0  0  0  0  0
    2.0105   -3.4625    0.0000 C   0  0  0  0  0  0  0  0  0  0  0  0
    5.1472   -4.3002    0.0000 C   0  0  0  0  0  0  0  0  0  0  0  0
    2.8388   -4.3281    0.0000 C   0  0  0  0  0  0  0  0  0  0  0  0
    6.0035   -1.1728    0.0000 C   0  0  0  0  0  0  0  0  0  0  0  0
    6.0035   -3.4625    0.0000 C   0  0  0  0  0  0  0  0  0  0  0  0
    2.6434   -0.0000    0.0000 Cl  0  0  0  0  0  0  0  0  0  0  0  0
    0.6608   -1.1728    0.0000 C   0  0  0  0  0  0  0  0  0  0  0  0
    0.6702   -3.4625    0.0000 C   0  0  0  0  0  0  0  0  0  0  0  0
    5.1472   -5.6312    0.0000 N   0  0  0  0  0  0  0  0  0  0  0  0
    2.8388   -5.6591    0.0000 N   0  0  0  0  0  0  0  0  0  0  0  0
    7.3159   -1.1728    0.0000 C   0  0  0  0  0  0  0  0  0  0  0  0
    7.3159   -3.4625    0.0000 C   0  0  0  0  0  0  0  0  0  0  0  0
    0.0000   -2.3083    0.0000 C   0  0  0  0  0  0  0  0  0  0  0  0
    3.9930   -6.3199    0.0000 C   0  0  0  0  0  0  0  0  0  0  0  0
    7.9767   -2.3083    0.0000 C   0  0  0  0  0  0  0  0  0  0  0  0
    9.3077   -2.3083    0.0000 Cl  0  0  0  0  0  0  0  0  0  0  0  0
  1  2  1  0  0  0  0 
  1  3  1  0  0  0  0 
  1  4  1  0  0  0  0 
  1  5  1  0  0  0  0 
  2  6  1  0  0  0  0 
  2  7  2  0  0  0  0 
  3  8  2  0  0  0  0 
  3  9  1  0  0  0  0 
  4 10  2  0  0  0  0 
  4 11  1  0  0  0  0 
  6 12  1  0  0  0  0 
  6 13  2  0  0  0  0 
  7 14  1  0  0  0  0 
 15  8  1  0  0  0  0 
 16  9  2  0  0  0  0 
 10 17  1  0  0  0  0 
 11 18  2  0  0  0  0 
 13 19  1  0  0  0  0 
 14 19  2  0  0  0  0 
 15 20  2  0  0  0  0 
 16 20  1  0  0  0  0 
 21 17  2  0  0  0  0 
 21 18  1  0  0  0  0 
 21 22  1  0  0  0  0 
M  END
> <Name>
FENARIMOL

> <Source>
DSSTox2DMolFile

> <Tox>
-6.648

> <CAS>
60168-88-9

$$$$

  CDK

 22 24  0  0  0  0  0  0  0  0999 V2000
    5.4149   -4.4296    0.0000 C   0  0  0  0  0  0  0  0  0  0  0  0
    6.0658   -5.5686    0.0000 C   0  0  0  0  0  0  0  0  0  0  0  0
    6.0658   -3.2634    0.0000 C   0  0  0  0  0  0  0  0  0  0  0  0
    4.6375   -3.3448    0.0000 O   0  0  0  0  0  0  0  0  0  0  0  0
    4.6104   -5.5053    0.0000 O   0  0  0  0  0  0  0  0  0  0  0  0
    7.3947   -5.5686    0.0000 C   0  0  0  0  0  0  0  0  0  0  0  0
    5.4059   -6.7257    0.0000 C   0  0  0  0  0  0  0  0  0  0  0  0
    5.4059   -2.1153    0.0000 N   0  0  0  0  0  0  0  0  0  0  0  0
    3.3719   -3.7516    0.0000 C   0  0  0  0  0  0  0  0  0  0  0  0
    3.3719   -5.0895    0.0000 C   0  0  0  0  0  0  0  0  0  0  0  0
    8.0546   -6.7257    0.0000 C   0  0  0  0  0  0  0  0  0  0  0  0
    8.0546   -4.4024    0.0000 Cl  0  0  0  0  0  0  0  0  0  0  0  0
    6.0658   -7.8738    0.0000 C   0  0  0  0  0  0  0  0  0  0  0  0
    5.9212   -0.8859    0.0000 C   0  0  0  0  0  0  0  0  0  0  0  0
    4.0861   -1.9707    0.0000 N   0  0  0  0  0  0  0  0  0  0  0  0
    2.3052   -2.9651    0.0000 C   0  0  0  0  0  0  0  0  0  0  0  0
    7.3947   -7.8738    0.0000 C   0  0  0  0  0  0  0  0  0  0  0  0
    4.9539   -0.0000    0.0000 N   0  0  0  0  0  0  0  0  0  0  0  0
    3.7968   -0.6870    0.0000 C   0  0  0  0  0  0  0  0  0  0  0  0
    1.0667   -3.4985    0.0000 C   0  0  0  0  0  0  0  0  0  0  0  0
    8.0817   -9.0399    0.0000 Cl  0  0  0  0  0  0  0  0  0  0  0  0
    0.0000   -2.7120    0.0000 C   0  0  0  0  0  0  0  0  0  0  0  0
  1  2  1  0  0  0  0 
  1  3  1  0  0  0  0 
  1  4  1  0  0  0  0 
  1  5  1  0  0  0  0 
  2  6  2  0  0  0  0 
  2  7  1  0  0  0  0 
  3  8  1  0  0  0  0 
  4  9  1  0  0  0  0 
  5 10  1  0  0  0  0 
  6 11  1  0  0  0  0 
  6 12  1  0  0  0  0 
  7 13  2  0  0  0  0 
  8 14  1  0  0  0  0 
  8 15  1  0  0  0  0 
  9 16  1  0  0  0  0 
  9 10  1  0  0  0  0 
 11 17  2  0  0  0  0 
 13 17  1  0  0  0  0 
 14 18  2  0  0  0  0 
 15 19  2  0  0  0  0 
 16 20  1  0  0  0  0 
 17 21  1  0  0  0  0 
 18 19  1  0  0  0  0 
 20 22  1  0  0  0  0 
M  END
> <Name>
PROPICONAZOLE

> <Source>
DSSTox2DMolFile

> <Tox>
-6.377

> <CAS>
60207-90-1

$$$$

  CDK

 18 19  0  0  0  0  0  0  0  0999 V2000
    4.6065   -1.3240    0.0000 O   0  0  0  0  0  0  0  0  0  0  0  0
    3.4572   -1.9768    0.0000 C   0  0  0  0  0  0  0  0  0  0  0  0
    5.7374   -1.9768    0.0000 C   0  0  0  0  0  0  0  0  0  0  0  0
    3.4572   -3.3192    0.0000 C   0  0  0  0  0  0  0  0  0  0  0  0
    2.2986   -1.3240    0.0000 C   0  0  0  0  0  0  0  0  0  0  0  0
    6.8959   -1.3240    0.0000 C   0  0  0  0  0  0  0  0  0  0  0  0
    5.7374   -3.3192    0.0000 C   0  0  0  0  0  0  0  0  0  0  0  0
    2.2986   -3.9813    0.0000 C   0  0  0  0  0  0  0  0  0  0  0  0
    1.1493   -1.9768    0.0000 C   0  0  0  0  0  0  0  0  0  0  0  0
    2.2986   -0.0000    0.0000 Br  0  0  0  0  0  0  0  0  0  0  0  0
    8.0453   -1.9768    0.0000 C   0  0  0  0  0  0  0  0  0  0  0  0
    6.8959   -0.0000    0.0000 Br  0  0  0  0  0  0  0  0  0  0  0  0
    6.8959   -3.9813    0.0000 C   0  0  0  0  0  0  0  0  0  0  0  0
    1.1493   -3.3192    0.0000 C   0  0  0  0  0  0  0  0  0  0  0  0
    8.0453   -3.3192    0.0000 C   0  0  0  0  0  0  0  0  0  0  0  0
    6.8959   -5.3053    0.0000 Br  0  0  0  0  0  0  0  0  0  0  0  0
    0.0000   -4.0272    0.0000 Br  0  0  0  0  0  0  0  0  0  0  0  0
    9.1946   -3.9813    0.0000 Br  0  0  0  0  0  0  0  0  0  0  0  0
  1  2  1  0  0  0  0 
  1  3  1  0  0  0  0 
  2  4  2  0  0  0  0 
  2  5  1  0  0  0  0 
  3  6  2  0  0  0  0 
  3  7  1  0  0  0  0 
  4  8  1  0  0  0  0 
  5  9  2  0  0  0  0 
  5 10  1  0  0  0  0 
  6 11  1  0  0  0  0 
  6 12  1  0  0  0  0 
  7 13  2  0  0  0  0 
  8 14  2  0  0  0  0 
  9 14  1  0  0  0  0 
 11 15  2  0  0  0  0 
 13 15  1  0  0  0  0 
 13 16  1  0  0  0  0 
 14 17  1  0  0  0  0 
 15 18  1  0  0  0  0 
M  END
> <Name>
2,2',4,4',5-Pentabromodiphenyl ether

> <Source>
DSSTox2DMolFile

> <Tox>
-7.509

> <CAS>
60348-60-9

$$$$

  CDK

 19 20  0  0  0  0  0  0  0  0999 V2000
    1.8063    2.5590    0.0000 C   0  0  0  0  0  0  0  0  0  0  0  0
    0.8530    2.2579    0.0000 C   0  0  0  0  0  0  0  0  0  0  0  0
    2.4084    1.7562    0.0000 N   0  0  0  0  0  0  0  0  0  0  0  0
    0.8530    1.2544    0.0000 C   0  0  0  0  0  0  0  0  0  0  0  0
    0.0502    2.8600    0.0000 C   0  0  0  0  0  0  0  0  0  0  0  0
    1.8063    0.9533    0.0000 C   0  0  0  0  0  0  0  0  0  0  0  0
    3.4120    1.7562    0.0000 C   0  0  0  0  0  0  0  0  0  0  0  0
    0.0502    0.6523    0.0000 Cl  0  0  0  0  0  0  0  0  0  0  0  0
    0.0000    3.8134    0.0000 Cl  0  0  0  0  0  0  0  0  0  0  0  0
    2.1074    0.0000    0.0000 O   0  0  0  0  0  0  0  0  0  0  0  0
    3.9137    0.9032    0.0000 C   0  0  0  0  0  0  0  0  0  0  0  0
    3.9137    2.6593    0.0000 C   0  0  0  0  0  0  0  0  0  0  0  0
    4.9172    0.9032    0.0000 C   0  0  0  0  0  0  0  0  0  0  0  0
    4.9172    2.6593    0.0000 C   0  0  0  0  0  0  0  0  0  0  0  0
    5.4190    1.7562    0.0000 C   0  0  0  0  0  0  0  0  0  0  0  0
    5.4190    3.5123    0.0000 C   0  0  0  0  0  0  0  0  0  0  0  0
    6.4225    3.5123    0.0000 F   0  0  0  0  0  0  0  0  0  0  0  0
    4.9172    4.3653    0.0000 F   0  0  0  0  0  0  0  0  0  0  0  0
    5.9207    4.3653    0.0000 F   0  0  0  0  0  0  0  0  0  0  0  0
  2  1  1  0  0  0  0 
  1  3  1  0  0  0  0 
  4  2  1  0  0  0  0 
  2  5  1  0  0  0  0 
  3  6  1  0  0  0  0 
  3  7  1  0  0  0  0 
  6  4  1  0  0  0  0 
  4  8  1  0  0  0  0 
  5  9  1  0  0  0  0 
  6 10  2  0  0  0  0 
 11  7  2  0  0  0  0 
  7 12  1  0  0  0  0 
 13 11  1  0  0  0  0 
 12 14  2  0  0  0  0 
 15 13  2  0  0  0  0 
 14 15  1  0  0  0  0 
 14 16  1  0  0  0  0 
 16 17  1  0  0  0  0 
 16 18  1  0  0  0  0 
 16 19  1  0  0  0  0 
M  END
> <Name>
FLUROCHLORIDONE

> <Source>
NIST2DMolFile

> <Tox>
-5.481

> <CAS>
61213-25-0

$$$$

  CDK

 16 17  0  0  0  0  0  0  0  0999 V2000
    0.6965   -2.8923    0.0000 Cl  0  0  0  0  0  0  0  0  0  0  0  0
    0.6965   -2.0673    0.0000 C   0  0  0  0  0  0  0  0  0  0  0  0
    1.4110   -1.6548    0.0000 C   0  0  0  0  0  0  0  0  0  0  0  0
   -0.0179   -1.6548    0.0000 C   0  0  0  0  0  0  0  0  0  0  0  0
    1.4110   -0.8298    0.0000 C   0  0  0  0  0  0  0  0  0  0  0  0
    2.1255   -2.0673    0.0000 Cl  0  0  0  0  0  0  0  0  0  0  0  0
   -0.0179   -0.8298    0.0000 C   0  0  0  0  0  0  0  0  0  0  0  0
    0.6965   -0.4173    0.0000 C   0  0  0  0  0  0  0  0  0  0  0  0
   -0.7324   -0.4173    0.0000 O   0  0  0  0  0  0  0  0  0  0  0  0
   -0.7324    0.4077    0.0000 C   0  0  0  0  0  0  0  0  0  0  0  0
   -0.0179    0.8202    0.0000 C   0  0  0  0  0  0  0  0  0  0  0  0
   -1.4469    0.8202    0.0000 C   0  0  0  0  0  0  0  0  0  0  0  0
   -0.0179    1.6452    0.0000 C   0  0  0  0  0  0  0  0  0  0  0  0
    0.3946    0.1057    0.0000 Cl  0  0  0  0  0  0  0  0  0  0  0  0
   -1.4469    1.6452    0.0000 C   0  0  0  0  0  0  0  0  0  0  0  0
   -0.7324    2.0577    0.0000 C   0  0  0  0  0  0  0  0  0  0  0  0
  1  2  1  0  0  0  0 
  2  3  1  0  0  0  0 
  2  4  2  0  0  0  0 
  3  5  2  0  0  0  0 
  3  6  1  0  0  0  0 
  7  4  1  0  0  0  0 
  5  8  1  0  0  0  0 
  8  7  2  0  0  0  0 
  7  9  1  0  0  0  0 
  9 10  1  0  0  0  0 
 10 11  1  0  0  0  0 
 10 12  2  0  0  0  0 
 11 13  2  0  0  0  0 
 11 14  1  0  0  0  0 
 15 12  1  0  0  0  0 
 13 16  1  0  0  0  0 
 16 15  2  0  0  0  0 
M  END
> <Name>
2',3,4-Trichlorodiphenyl ether

> <Source>
Smiles

> <Tox>
-3.854

> <CAS>
61328-44-7

$$$$

  CDK

 18 17  0  0  0  0  0  0  0  0999 V2000
   -8.9824    1.8727   -0.8770 Cl  0  0  0  0  0  0  0  0  0  0  0  0
   -8.8228    0.9611    0.6412 C   0  0  0  0  0  0  0  0  0  0  0  0
   -8.5159   -0.5135    0.3973 C   0  0  0  0  0  0  0  0  0  0  0  0
   -7.2018   -0.8063   -0.3369 C   0  0  0  0  0  0  0  0  0  0  0  0
   -5.9261   -0.3648    0.3873 C   0  0  0  0  0  0  0  0  0  0  0  0
   -4.6103   -0.7248   -0.3101 C   0  0  0  0  0  0  0  0  0  0  0  0
   -3.3363   -0.2200    0.3739 C   0  0  0  0  0  0  0  0  0  0  0  0
   -2.0568   -0.5666   -0.3904 C   0  0  0  0  0  0  0  0  0  0  0  0
   -0.8173   -0.0446    0.3414 C   0  0  0  0  0  0  0  0  0  0  0  0
    0.4651   -0.4177   -0.4050 C   0  0  0  0  0  0  0  0  0  0  0  0
    1.7405    0.0524    0.3012 C   0  0  0  0  0  0  0  0  0  0  0  0
    3.0584   -0.3144   -0.3899 C   0  0  0  0  0  0  0  0  0  0  0  0
    4.2925    0.2354    0.3297 C   0  0  0  0  0  0  0  0  0  0  0  0
    5.6118   -0.1233   -0.3639 C   0  0  0  0  0  0  0  0  0  0  0  0
    6.8477    0.3605    0.3996 C   0  0  0  0  0  0  0  0  0  0  0  0
    8.1669    0.0036   -0.2932 C   0  0  0  0  0  0  0  0  0  0  0  0
    9.4047    0.4605    0.4800 C   0  0  0  0  0  0  0  0  0  0  0  0
   10.6822    0.1497   -0.2853 C   0  0  0  0  0  0  0  0  0  0  0  0
  1  2  1  0  0  0  0 
  3  2  1  0  0  0  0 
  4  3  1  0  0  0  0 
  5  4  1  0  0  0  0 
  6  5  1  0  0  0  0 
  7  6  1  0  0  0  0 
  8  7  1  0  0  0  0 
  9  8  1  0  0  0  0 
 10  9  1  0  0  0  0 
 10 11  1  0  0  0  0 
 11 12  1  0  0  0  0 
 12 13  1  0  0  0  0 
 13 14  1  0  0  0  0 
 14 15  1  0  0  0  0 
 15 16  1  0  0  0  0 
 16 17  1  0  0  0  0 
 17 18  1  0  0  0  0 
M  END
> <Name>
1-CHLOROHEPTADECANE

> <Source>
Chemidplus3DMolFile

> <Tox>
-4.337

> <CAS>
62016-75-5

$$$$

  CDK

 19 20  0  0  0  0  0  0  0  0999 V2000
   -5.8388   -1.0982   -0.2004 O   0  0  0  0  0  0  0  0  0  0  0  0
   -5.2579    0.0134   -0.1635 N   0  0  0  0  0  0  0  0  0  0  0  0
   -5.8815    1.0947   -0.2925 O   0  0  0  0  0  0  0  0  0  0  0  0
   -3.8518    0.0489    0.0307 C   0  0  0  0  0  0  0  0  0  0  0  0
   -3.1373   -1.1401    0.1770 C   0  0  0  0  0  0  0  0  0  0  0  0
   -3.1848    1.2731    0.0742 C   0  0  0  0  0  0  0  0  0  0  0  0
   -1.7558   -1.1049    0.3669 C   0  0  0  0  0  0  0  0  0  0  0  0
   -1.8033    1.3084    0.2639 C   0  0  0  0  0  0  0  0  0  0  0  0
   -1.0957    0.1192    0.4094 C   0  0  0  0  0  0  0  0  0  0  0  0
    0.2964    0.1543    0.5990 N   0  0  0  0  0  0  0  0  0  0  0  0
    0.8794    0.1192   -0.5093 N   0  0  0  0  0  0  0  0  0  0  0  0
    2.2664    0.1545   -0.3199 C   0  0  0  0  0  0  0  0  0  0  0  0
    2.9968   -1.0247   -0.1727 C   0  0  0  0  0  0  0  0  0  0  0  0
    2.9169    1.3877   -0.2788 C   0  0  0  0  0  0  0  0  0  0  0  0
    4.3779   -0.9706    0.0156 C   0  0  0  0  0  0  0  0  0  0  0  0
    2.3217   -2.3567   -0.2121 C   0  0  0  0  0  0  0  0  0  0  0  0
    4.2980    1.4416   -0.0908 C   0  0  0  0  0  0  0  0  0  0  0  0
    5.0284    0.2625    0.0565 C   0  0  0  0  0  0  0  0  0  0  0  0
    6.4250    0.3176    0.2467 N   0  0  0  0  0  0  0  0  0  0  0  0
  1  2  1  0  0  0  0 
  3  2  2  0  0  0  0 
  2  4  1  0  0  0  0 
  4  5  2  0  0  0  0 
  4  6  1  0  0  0  0 
  7  5  1  0  0  0  0 
  8  6  2  0  0  0  0 
  9  7  2  0  0  0  0 
  9  8  1  0  0  0  0 
 10  9  1  0  0  0  0 
 11 10  2  0  0  0  0 
 11 12  1  0  0  0  0 
 13 12  2  0  0  0  0 
 12 14  1  0  0  0  0 
 13 15  1  0  0  0  0 
 13 16  1  0  0  0  0 
 14 17  2  0  0  0  0 
 15 18  2  0  0  0  0 
 18 17  1  0  0  0  0 
 19 18  1  0  0  0  0 
M  CHG  1   1  -1
M  CHG  1   2   1
M  END
> <Name>
3-METHYL-4-((4-NITROPHENYL)AZO)BENZENAMINE

> <Source>
Chemidplus3DMolFile

> <Tox>
-9.147

> <CAS>
62308-10-5

$$$$

  CDK

 28 29  0  0  0  0  0  0  0  0999 V2000
    2.6400   -4.6143    0.0000 C   0  0  0  0  0  0  0  0  0  0  0  0
    1.9856   -5.7763    0.0000 C   0  0  0  0  0  0  0  0  0  0  0  0
    1.9856   -3.4635    0.0000 C   0  0  0  0  0  0  0  0  0  0  0  0
    3.9712   -4.6143    0.0000 C   0  0  0  0  0  0  0  0  0  0  0  0
    0.6543   -5.7763    0.0000 C   0  0  0  0  0  0  0  0  0  0  0  0
    2.6400   -6.9270    0.0000 F   0  0  0  0  0  0  0  0  0  0  0  0
    0.6543   -3.4635    0.0000 C   0  0  0  0  0  0  0  0  0  0  0  0
    2.6400   -2.3128    0.0000 Cl  0  0  0  0  0  0  0  0  0  0  0  0
    4.6481   -3.4635    0.0000 N   0  0  0  0  0  0  0  0  0  0  0  0
    0.0000   -4.6143    0.0000 C   0  0  0  0  0  0  0  0  0  0  0  0
    5.9568   -3.4635    0.0000 C   0  0  0  0  0  0  0  0  0  0  0  0
    3.7230   -2.5723    0.0000 C   0  0  0  0  0  0  0  0  0  0  0  0
    6.6337   -2.3128    0.0000 C   0  0  0  0  0  0  0  0  0  0  0  0
    6.6337   -4.6143    0.0000 C   0  0  0  0  0  0  0  0  0  0  0  0
    3.7230   -1.2523    0.0000 C   0  0  0  0  0  0  0  0  0  0  0  0
    7.9650   -2.3128    0.0000 C   0  0  0  0  0  0  0  0  0  0  0  0
    5.9568   -1.1620    0.0000 N   0  0  0  0  0  0  0  0  0  0  0  0
    7.9650   -4.6143    0.0000 C   0  0  0  0  0  0  0  0  0  0  0  0
    5.9568   -5.7763    0.0000 N   0  0  0  0  0  0  0  0  0  0  0  0
    8.6419   -3.4635    0.0000 C   0  0  0  0  0  0  0  0  0  0  0  0
    6.6337   -0.0000    0.0000 O   0  0  0  0  0  0  0  0  0  0  0  0
    4.6481   -0.6882    0.0000 O   0  0  0  0  0  0  0  0  0  0  0  0
    4.6481   -5.7763    0.0000 O   0  0  0  0  0  0  0  0  0  0  0  0
    6.6337   -6.9270    0.0000 O   0  0  0  0  0  0  0  0  0  0  0  0
    9.9506   -3.4635    0.0000 C   0  0  0  0  0  0  0  0  0  0  0  0
   11.2818   -3.4635    0.0000 F   0  0  0  0  0  0  0  0  0  0  0  0
    9.9506   -2.1323    0.0000 F   0  0  0  0  0  0  0  0  0  0  0  0
    9.9506   -4.7948    0.0000 F   0  0  0  0  0  0  0  0  0  0  0  0
  1  2  1  0  0  0  0 
  1  3  2  0  0  0  0 
  1  4  1  0  0  0  0 
  2  5  2  0  0  0  0 
  2  6  1  0  0  0  0 
  7  3  1  0  0  0  0 
  3  8  1  0  0  0  0 
  4  9  1  0  0  0  0 
  5 10  1  0  0  0  0 
 10  7  2  0  0  0  0 
  9 11  1  0  0  0  0 
  9 12  1  0  0  0  0 
 11 13  2  0  0  0  0 
 11 14  1  0  0  0  0 
 12 15  1  0  0  0  0 
 13 16  1  0  0  0  0 
 13 17  1  0  0  0  0 
 14 18  2  0  0  0  0 
 14 19  1  0  0  0  0 
 16 20  2  0  0  0  0 
 17 21  1  0  0  0  0 
 17 22  2  0  0  0  0 
 18 20  1  0  0  0  0 
 19 23  1  0  0  0  0 
 19 24  2  0  0  0  0 
 20 25  1  0  0  0  0 
 25 26  1  0  0  0  0 
 25 27  1  0  0  0  0 
 25 28  1  0  0  0  0 
M  CHG  1  17   1
M  CHG  1  19   1
M  CHG  1  21  -1
M  CHG  1  23  -1
M  END
> <Name>
FLUMETRALIN

> <Source>
DSSTox2DMolFile

> <Tox>
-6.620

> <CAS>
62924-70-3

$$$$

  CDK

 27 28  0  0  0  0  0  0  0  0999 V2000
    3.7632   -2.1805    0.0000 C   0  0  0  0  0  0  0  0  0  0  0  0
    4.6424   -3.1184    0.0000 C   0  0  0  0  0  0  0  0  0  0  0  0
    4.1383   -0.9379    0.0000 N   0  0  0  0  0  0  0  0  0  0  0  0
    2.5088   -2.4736    0.0000 C   0  0  0  0  0  0  0  0  0  0  0  0
    4.2790   -4.3493    0.0000 C   0  0  0  0  0  0  0  0  0  0  0  0
    6.4830   -2.6495    0.0000 N   0  0  0  0  0  0  0  0  0  0  0  0
    3.2591   -0.0000    0.0000 O   0  0  0  0  0  0  0  0  0  0  0  0
    5.4044   -0.6565    0.0000 O   0  0  0  0  0  0  0  0  0  0  0  0
    2.1454   -3.7163    0.0000 C   0  0  0  0  0  0  0  0  0  0  0  0
    5.1700   -5.2989    0.0000 C   0  0  0  0  0  0  0  0  0  0  0  0
    3.0246   -4.6541    0.0000 C   0  0  0  0  0  0  0  0  0  0  0  0
    8.1008   -3.2942    0.0000 C   0  0  0  0  0  0  0  0  0  0  0  0
    6.4830   -1.3951    0.0000 C   0  0  0  0  0  0  0  0  0  0  0  0
    0.8792   -4.0094    0.0000 N   0  0  0  0  0  0  0  0  0  0  0  0
    4.2204   -6.1899    0.0000 F   0  0  0  0  0  0  0  0  0  0  0  0
    6.0961   -4.4197    0.0000 F   0  0  0  0  0  0  0  0  0  0  0  0
    6.0492   -6.2368    0.0000 F   0  0  0  0  0  0  0  0  0  0  0  0
    9.1090   -2.4853    0.0000 C   0  0  0  0  0  0  0  0  0  0  0  0
    8.2883   -4.5721    0.0000 C   0  0  0  0  0  0  0  0  0  0  0  0
    0.5041   -5.2520    0.0000 O   0  0  0  0  0  0  0  0  0  0  0  0
    0.0000   -3.0715    0.0000 O   0  0  0  0  0  0  0  0  0  0  0  0
   10.3165   -2.9660    0.0000 C   0  0  0  0  0  0  0  0  0  0  0  0
    8.9331   -1.1958    0.0000 Br  0  0  0  0  0  0  0  0  0  0  0  0
    9.4958   -5.0527    0.0000 C   0  0  0  0  0  0  0  0  0  0  0  0
    7.2684   -5.3810    0.0000 Br  0  0  0  0  0  0  0  0  0  0  0  0
   10.5158   -4.2555    0.0000 C   0  0  0  0  0  0  0  0  0  0  0  0
   11.7233   -4.7362    0.0000 Br  0  0  0  0  0  0  0  0  0  0  0  0
  1  2  1  0  0  0  0 
  1  3  1  0  0  0  0 
  1  4  2  0  0  0  0 
  5  2  2  0  0  0  0 
  2  6  1  0  0  0  0 
  3  7  1  0  0  0  0 
  3  8  2  0  0  0  0 
  4  9  1  0  0  0  0 
  5 10  1  0  0  0  0 
  5 11  1  0  0  0  0 
  6 12  1  0  0  0  0 
  6 13  1  0  0  0  0 
 14  9  1  0  0  0  0 
  9 11  2  0  0  0  0 
 10 15  1  0  0  0  0 
 10 16  1  0  0  0  0 
 10 17  1  0  0  0  0 
 12 18  2  0  0  0  0 
 12 19  1  0  0  0  0 
 14 20  1  0  0  0  0 
 14 21  2  0  0  0  0 
 18 22  1  0  0  0  0 
 18 23  1  0  0  0  0 
 19 24  2  0  0  0  0 
 19 25  1  0  0  0  0 
 22 26  2  0  0  0  0 
 24 26  1  0  0  0  0 
 26 27  1  0  0  0  0 
M  CHG  1   3   1
M  CHG  1   7  -1
M  CHG  1  14   1
M  CHG  1  20  -1
M  END
> <Name>
BROMETHALIN

> <Source>
DSSTox2DMolFile

> <Tox>
-7.013

> <CAS>
63333-35-7

$$$$

  CDK

 16 17  0  0  0  0  0  0  0  0999 V2000
    1.4241   -0.8429    0.0000 C   0  0  0  0  0  0  0  0  0  0  0  0
    2.1386   -0.4304    0.0000 C   0  0  0  0  0  0  0  0  0  0  0  0
    0.7097   -0.4304    0.0000 C   0  0  0  0  0  0  0  0  0  0  0  0
    2.1386    0.3946    0.0000 C   0  0  0  0  0  0  0  0  0  0  0  0
    0.7097    0.3946    0.0000 C   0  0  0  0  0  0  0  0  0  0  0  0
   -0.0048   -0.8429    0.0000 O   0  0  0  0  0  0  0  0  0  0  0  0
    2.8531    0.8071    0.0000 Cl  0  0  0  0  0  0  0  0  0  0  0  0
    1.4241    0.8071    0.0000 C   0  0  0  0  0  0  0  0  0  0  0  0
   -0.7193   -0.4304    0.0000 C   0  0  0  0  0  0  0  0  0  0  0  0
   -0.7193    0.3946    0.0000 C   0  0  0  0  0  0  0  0  0  0  0  0
   -1.4337   -0.8429    0.0000 C   0  0  0  0  0  0  0  0  0  0  0  0
   -1.4337    0.8071    0.0000 C   0  0  0  0  0  0  0  0  0  0  0  0
   -2.1482   -0.4304    0.0000 C   0  0  0  0  0  0  0  0  0  0  0  0
   -1.4337    1.6321    0.0000 Cl  0  0  0  0  0  0  0  0  0  0  0  0
   -2.1482    0.3946    0.0000 C   0  0  0  0  0  0  0  0  0  0  0  0
   -2.8627    0.8071    0.0000 Cl  0  0  0  0  0  0  0  0  0  0  0  0
  1  2  1  0  0  0  0 
  1  3  2  0  0  0  0 
  2  4  2  0  0  0  0 
  5  3  1  0  0  0  0 
  3  6  1  0  0  0  0 
  4  7  1  0  0  0  0 
  4  8  1  0  0  0  0 
  8  5  2  0  0  0  0 
  6  9  1  0  0  0  0 
  9 10  1  0  0  0  0 
  9 11  2  0  0  0  0 
 10 12  2  0  0  0  0 
 13 11  1  0  0  0  0 
 12 14  1  0  0  0  0 
 12 15  1  0  0  0  0 
 15 13  2  0  0  0  0 
 15 16  1  0  0  0  0 
M  END
> <Name>
3,4,4'-Trichlorodiphenyl ether

> <Source>
Smiles

> <Tox>
-3.983

> <CAS>
63646-51-5

$$$$

  CDK

 25 26  0  0  0  0  0  0  0  0999 V2000
    1.2127    1.3992    0.0000 C   0  0  0  0  0  0  0  0  0  0  0  0
    2.4253    2.0988    0.0000 O   0  0  0  0  0  0  0  0  0  0  0  0
    0.0000    2.0988    0.0000 C   0  0  0  0  0  0  0  0  0  0  0  0
    1.2127    0.0000    0.0000 C   0  0  0  0  0  0  0  0  0  0  0  0
    3.6380    1.3992    0.0000 C   0  0  0  0  0  0  0  0  0  0  0  0
    3.6380    0.0000    0.0000 O   0  0  0  0  0  0  0  0  0  0  0  0
    4.8506    2.0988    0.0000 C   0  0  0  0  0  0  0  0  0  0  0  0
    6.0633    1.3992    0.0000 C   0  0  0  0  0  0  0  0  0  0  0  0
    4.8506    3.4981    0.0000 N   0  0  0  0  0  0  0  0  0  0  0  0
    6.0633    4.1977    0.0000 C   0  0  0  0  0  0  0  0  0  0  0  0
    3.6380    4.1977    0.0000 C   0  0  0  0  0  0  0  0  0  0  0  0
    6.0633    5.5969    0.0000 O   0  0  0  0  0  0  0  0  0  0  0  0
    7.2760    3.4981    0.0000 C   0  0  0  0  0  0  0  0  0  0  0  0
    2.4253    3.4981    0.0000 C   0  0  0  0  0  0  0  0  0  0  0  0
    3.6380    5.5969    0.0000 C   0  0  0  0  0  0  0  0  0  0  0  0
    8.4886    4.1977    0.0000 C   0  0  0  0  0  0  0  0  0  0  0  0
    7.2760    2.0988    0.0000 C   0  0  0  0  0  0  0  0  0  0  0  0
    1.2127    4.1977    0.0000 C   0  0  0  0  0  0  0  0  0  0  0  0
    2.4253    6.2965    0.0000 C   0  0  0  0  0  0  0  0  0  0  0  0
    9.7013    3.4981    0.0000 C   0  0  0  0  0  0  0  0  0  0  0  0
    8.4886    1.3992    0.0000 C   0  0  0  0  0  0  0  0  0  0  0  0
    1.2127    5.5969    0.0000 C   0  0  0  0  0  0  0  0  0  0  0  0
    2.4253    7.6491    0.0000 Cl  0  0  0  0  0  0  0  0  0  0  0  0
    9.7013    2.0988    0.0000 C   0  0  0  0  0  0  0  0  0  0  0  0
    0.0466    6.2965    0.0000 F   0  0  0  0  0  0  0  0  0  0  0  0
  1  2  1  0  0  0  0 
  1  3  1  0  0  0  0 
  1  4  1  0  0  0  0 
  2  5  1  0  0  0  0 
  5  6  2  0  0  0  0 
  5  7  1  0  0  0  0 
  7  8  1  0  0  0  0 
  7  9  1  0  0  0  0 
  9 10  1  0  0  0  0 
  9 11  1  0  0  0  0 
 10 12  2  0  0  0  0 
 10 13  1  0  0  0  0 
 11 14  2  0  0  0  0 
 11 15  1  0  0  0  0 
 13 16  1  0  0  0  0 
 13 17  2  0  0  0  0 
 14 18  1  0  0  0  0 
 19 15  2  0  0  0  0 
 16 20  2  0  0  0  0 
 21 17  1  0  0  0  0 
 18 22  2  0  0  0  0 
 22 19  1  0  0  0  0 
 19 23  1  0  0  0  0 
 20 24  1  0  0  0  0 
 24 21  2  0  0  0  0 
 22 25  1  0  0  0  0 
M  END
> <Name>
Flamprop-M-isopropyl

> <Source>
IndexNet2DMolFile

> <Tox>
-6.195

> <CAS>
63782-90-1

$$$$

  CDK

 22 24  0  0  0  0  0  0  0  0999 V2000
   13.1061    2.6119    0.0000 O   0  0  0  0  0  0  0  0  0  0  0  0
   12.4064    1.3992    0.0000 C   0  0  0  0  0  0  0  0  0  0  0  0
   12.1732    3.6380    0.0000 C   0  0  0  0  0  0  0  0  0  0  0  0
   12.9661    0.1399    0.0000 C   0  0  0  0  0  0  0  0  0  0  0  0
   11.0539    1.6791    0.0000 O   0  0  0  0  0  0  0  0  0  0  0  0
   10.9139    3.0783    0.0000 C   0  0  0  0  0  0  0  0  0  0  0  0
   14.3654    0.0000    0.0000 C   0  0  0  0  0  0  0  0  0  0  0  0
    9.7013    3.7779    0.0000 C   0  0  0  0  0  0  0  0  0  0  0  0
    8.4886    3.0783    0.0000 O   0  0  0  0  0  0  0  0  0  0  0  0
    7.2760    3.7779    0.0000 C   0  0  0  0  0  0  0  0  0  0  0  0
    6.0633    3.0783    0.0000 C   0  0  0  0  0  0  0  0  0  0  0  0
    7.2760    5.1771    0.0000 C   0  0  0  0  0  0  0  0  0  0  0  0
    4.8506    3.7779    0.0000 C   0  0  0  0  0  0  0  0  0  0  0  0
    6.0633    5.8767    0.0000 C   0  0  0  0  0  0  0  0  0  0  0  0
    4.8506    5.1771    0.0000 C   0  0  0  0  0  0  0  0  0  0  0  0
    3.6380    5.8767    0.0000 O   0  0  0  0  0  0  0  0  0  0  0  0
    2.4253    5.1771    0.0000 C   0  0  0  0  0  0  0  0  0  0  0  0
    2.4253    3.7779    0.0000 C   0  0  0  0  0  0  0  0  0  0  0  0
    1.2127    5.8767    0.0000 C   0  0  0  0  0  0  0  0  0  0  0  0
    1.2127    3.0783    0.0000 C   0  0  0  0  0  0  0  0  0  0  0  0
    0.0000    5.1771    0.0000 C   0  0  0  0  0  0  0  0  0  0  0  0
    0.0000    3.7779    0.0000 C   0  0  0  0  0  0  0  0  0  0  0  0
  1  2  1  0  0  0  0 
  1  3  1  0  0  0  0 
  2  4  1  0  0  0  0 
  2  5  1  0  0  0  0 
  6  3  1  0  0  0  0 
  4  7  1  0  0  0  0 
  5  6  1  0  0  0  0 
  6  8  1  0  0  0  0 
  8  9  1  0  0  0  0 
  9 10  1  0  0  0  0 
 10 11  2  0  0  0  0 
 10 12  1  0  0  0  0 
 11 13  1  0  0  0  0 
 14 12  2  0  0  0  0 
 13 15  2  0  0  0  0 
 15 14  1  0  0  0  0 
 15 16  1  0  0  0  0 
 16 17  1  0  0  0  0 
 17 18  2  0  0  0  0 
 17 19  1  0  0  0  0 
 18 20  1  0  0  0  0 
 21 19  2  0  0  0  0 
 20 22  2  0  0  0  0 
 22 21  1  0  0  0  0 
M  END
> <Name>
DIOFENOLAN

> <Source>
IndexNet2DMolFile

> <Tox>
-6.084

> <CAS>
63837-33-2

$$$$

  CDK

 32 34  0  0  0  0  0  0  0  0999 V2000
    9.2207   -2.6037    0.0000 C   0  0  0  0  0  0  0  0  0  0  0  0
    8.0461   -3.2693    0.0000 C   0  0  0  0  0  0  0  0  0  0  0  0
   10.3562   -3.2693    0.0000 C   0  0  0  0  0  0  0  0  0  0  0  0
    6.9107   -2.6037    0.0000 C   0  0  0  0  0  0  0  0  0  0  0  0
   10.3562   -4.6006    0.0000 C   0  0  0  0  0  0  0  0  0  0  0  0
   11.5112   -2.6037    0.0000 C   0  0  0  0  0  0  0  0  0  0  0  0
    5.7556   -3.2693    0.0000 C   0  0  0  0  0  0  0  0  0  0  0  0
   11.5112   -5.2662    0.0000 C   0  0  0  0  0  0  0  0  0  0  0  0
   12.6663   -3.2693    0.0000 C   0  0  0  0  0  0  0  0  0  0  0  0
    4.6006   -2.6037    0.0000 C   0  0  0  0  0  0  0  0  0  0  0  0
   12.6663   -4.6006    0.0000 C   0  0  0  0  0  0  0  0  0  0  0  0
    3.4455   -3.2693    0.0000 C   0  0  0  0  0  0  0  0  0  0  0  0
   13.8213   -5.2662    0.0000 O   0  0  0  0  0  0  0  0  0  0  0  0
    2.2905   -2.6037    0.0000 C   0  0  0  0  0  0  0  0  0  0  0  0
   14.9763   -4.6006    0.0000 P   0  0  0  0  0  0  0  0  0  0  0  0
    1.1550   -3.2693    0.0000 C   0  0  0  0  0  0  0  0  0  0  0  0
   15.6224   -5.7556    0.0000 O   0  0  0  0  0  0  0  0  0  0  0  0
   16.1314   -3.9350    0.0000 O   0  0  0  0  0  0  0  0  0  0  0  0
   14.3107   -3.4455    0.0000 O   0  0  0  0  0  0  0  0  0  0  0  0
    0.0000   -2.6037    0.0000 C   0  0  0  0  0  0  0  0  0  0  0  0
   17.2668   -4.6006    0.0000 C   0  0  0  0  0  0  0  0  0  0  0  0
   14.9763   -2.2905    0.0000 C   0  0  0  0  0  0  0  0  0  0  0  0
   18.4219   -3.9350    0.0000 C   0  0  0  0  0  0  0  0  0  0  0  0
   17.2668   -5.9318    0.0000 C   0  0  0  0  0  0  0  0  0  0  0  0
   14.3107   -1.1550    0.0000 C   0  0  0  0  0  0  0  0  0  0  0  0
   16.3076   -2.2905    0.0000 C   0  0  0  0  0  0  0  0  0  0  0  0
   19.5769   -4.6006    0.0000 C   0  0  0  0  0  0  0  0  0  0  0  0
   18.4219   -6.5974    0.0000 C   0  0  0  0  0  0  0  0  0  0  0  0
   14.9763   -0.0000    0.0000 C   0  0  0  0  0  0  0  0  0  0  0  0
   16.9732   -1.1550    0.0000 C   0  0  0  0  0  0  0  0  0  0  0  0
   19.5769   -5.9318    0.0000 C   0  0  0  0  0  0  0  0  0  0  0  0
   16.3076   -0.0000    0.0000 C   0  0  0  0  0  0  0  0  0  0  0  0
  1  2  1  0  0  0  0 
  1  3  1  0  0  0  0 
  2  4  1  0  0  0  0 
  5  3  1  0  0  0  0 
  3  6  2  0  0  0  0 
  4  7  1  0  0  0  0 
  8  5  2  0  0  0  0 
  6  9  1  0  0  0  0 
  7 10  1  0  0  0  0 
 11  8  1  0  0  0  0 
 11  9  2  0  0  0  0 
 10 12  1  0  0  0  0 
 13 11  1  0  0  0  0 
 12 14  1  0  0  0  0 
 15 13  1  0  0  0  0 
 14 16  1  0  0  0  0 
 15 17  2  0  0  0  0 
 15 18  1  0  0  0  0 
 15 19  1  0  0  0  0 
 16 20  1  0  0  0  0 
 18 21  1  0  0  0  0 
 19 22  1  0  0  0  0 
 21 23  1  0  0  0  0 
 21 24  2  0  0  0  0 
 22 25  1  0  0  0  0 
 22 26  2  0  0  0  0 
 23 27  2  0  0  0  0 
 28 24  1  0  0  0  0 
 25 29  2  0  0  0  0 
 30 26  1  0  0  0  0 
 27 31  1  0  0  0  0 
 31 28  2  0  0  0  0 
 29 32  1  0  0  0  0 
 32 30  2  0  0  0  0 
M  END
> <Name>
4-NONYLPHENYL DIPHENYL PHOSPATE

> <Source>
DSSTox2DMolFile

> <Tox>
-7.721

> <CAS>
64532-97-4

$$$$

  CDK

 17 19  0  0  0  0  0  0  0  0999 V2000
    1.4801    2.8944    0.0009 Cl  0  0  0  0  0  0  0  0  0  0  0  0
    1.7187    1.2153    0.0000 C   0  0  0  0  0  0  0  0  0  0  0  0
    0.7128    0.2312    0.0000 C   0  0  0  0  0  0  0  0  0  0  0  0
    3.0600    0.8094    0.0001 C   0  0  0  0  0  0  0  0  0  0  0  0
   -0.7128    0.2313    0.0000 C   0  0  0  0  0  0  0  0  0  0  0  0
    1.0961   -1.1063    0.0000 C   0  0  0  0  0  0  0  0  0  0  0  0
    3.4023   -0.5447   -0.0002 C   0  0  0  0  0  0  0  0  0  0  0  0
   -1.0961   -1.1063    0.0002 C   0  0  0  0  0  0  0  0  0  0  0  0
   -1.7186    1.2152    0.0000 C   0  0  0  0  0  0  0  0  0  0  0  0
    0.0000   -1.9149    0.0003 O   0  0  0  0  0  0  0  0  0  0  0  0
    2.4207   -1.5400   -0.0001 C   0  0  0  0  0  0  0  0  0  0  0  0
    5.0648   -1.0019   -0.0005 Cl  0  0  0  0  0  0  0  0  0  0  0  0
   -2.4208   -1.5400    0.0003 C   0  0  0  0  0  0  0  0  0  0  0  0
   -1.4800    2.8943   -0.0008 Cl  0  0  0  0  0  0  0  0  0  0  0  0
   -3.0600    0.8095   -0.0002 C   0  0  0  0  0  0  0  0  0  0  0  0
   -3.4023   -0.5447    0.0002 C   0  0  0  0  0  0  0  0  0  0  0  0
   -5.0647   -1.0018   -0.0003 Cl  0  0  0  0  0  0  0  0  0  0  0  0
  1  2  1  0  0  0  0 
  3  2  1  0  0  0  0 
  2  4  2  0  0  0  0 
  3  5  1  0  0  0  0 
  3  6  2  0  0  0  0 
  4  7  1  0  0  0  0 
  5  8  2  0  0  0  0 
  5  9  1  0  0  0  0 
 10  6  1  0  0  0  0 
  6 11  1  0  0  0  0 
 12  7  1  0  0  0  0 
 11  7  2  0  0  0  0 
 10  8  1  0  0  0  0 
  8 13  1  0  0  0  0 
 14  9  1  0  0  0  0 
  9 15  2  0  0  0  0 
 13 16  2  0  0  0  0 
 15 16  1  0  0  0  0 
 17 16  1  0  0  0  0 
M  END
> <Name>
DIBENZOFURAN, 1,3,7,9-TETRACHLORO-

> <Source>
Chemidplus3DMolFile

> <Tox>
-7.726

> <CAS>
64560-17-4

$$$$

  CDK

 23 24  0  0  0  0  0  0  0  0999 V2000
    3.4595   -1.1532    0.0000 S   0  0  0  0  0  0  0  0  0  0  0  0
    4.6000   -0.4815    0.0000 N   0  0  0  0  0  0  0  0  0  0  0  0
    2.2937   -1.8375    0.0000 C   0  0  0  0  0  0  0  0  0  0  0  0
    2.7625   -0.0000    0.0000 O   0  0  0  0  0  0  0  0  0  0  0  0
    4.1185   -2.3063    0.0000 O   0  0  0  0  0  0  0  0  0  0  0  0
    5.7785   -1.1532    0.0000 C   0  0  0  0  0  0  0  0  0  0  0  0
    2.2937   -3.1680    0.0000 C   0  0  0  0  0  0  0  0  0  0  0  0
    1.1532   -1.1785    0.0000 C   0  0  0  0  0  0  0  0  0  0  0  0
    6.9190   -0.4562    0.0000 N   0  0  0  0  0  0  0  0  0  0  0  0
    5.7785   -2.4711    0.0000 O   0  0  0  0  0  0  0  0  0  0  0  0
    3.4595   -3.8270    0.0000 Cl  0  0  0  0  0  0  0  0  0  0  0  0
    1.1532   -3.8270    0.0000 C   0  0  0  0  0  0  0  0  0  0  0  0
    0.0000   -1.8375    0.0000 C   0  0  0  0  0  0  0  0  0  0  0  0
    8.0722   -1.1152    0.0000 C   0  0  0  0  0  0  0  0  0  0  0  0
    0.0000   -3.1680    0.0000 C   0  0  0  0  0  0  0  0  0  0  0  0
    9.2127   -0.4435    0.0000 N   0  0  0  0  0  0  0  0  0  0  0  0
    8.0722   -2.4331    0.0000 N   0  0  0  0  0  0  0  0  0  0  0  0
   10.3658   -1.1152    0.0000 C   0  0  0  0  0  0  0  0  0  0  0  0
    9.2127   -3.1047    0.0000 C   0  0  0  0  0  0  0  0  0  0  0  0
   10.3658   -2.4331    0.0000 N   0  0  0  0  0  0  0  0  0  0  0  0
   11.5190   -0.4309    0.0000 O   0  0  0  0  0  0  0  0  0  0  0  0
    9.2127   -4.4226    0.0000 C   0  0  0  0  0  0  0  0  0  0  0  0
   12.6722   -1.0898    0.0000 C   0  0  0  0  0  0  0  0  0  0  0  0
  1  2  1  0  0  0  0 
  1  3  1  0  0  0  0 
  1  4  2  0  0  0  0 
  1  5  2  0  0  0  0 
  2  6  1  0  0  0  0 
  3  7  2  0  0  0  0 
  3  8  1  0  0  0  0 
  6  9  1  0  0  0  0 
  6 10  2  0  0  0  0 
  7 11  1  0  0  0  0 
  7 12  1  0  0  0  0 
  8 13  2  0  0  0  0 
 14  9  1  0  0  0  0 
 12 15  2  0  0  0  0 
 13 15  1  0  0  0  0 
 14 16  2  0  0  0  0 
 14 17  1  0  0  0  0 
 16 18  1  0  0  0  0 
 17 19  2  0  0  0  0 
 20 18  2  0  0  0  0 
 18 21  1  0  0  0  0 
 20 19  1  0  0  0  0 
 19 22  1  0  0  0  0 
 21 23  1  0  0  0  0 
M  END
> <Name>
CHLORSULFURON

> <Source>
DSSTox2DMolFile

> <Tox>
-10.648

> <CAS>
64902-72-3

$$$$

  CDK

 16 17  0  0  0  0  0  0  0  0999 V2000
    1.4241   -0.8429    0.0000 C   0  0  0  0  0  0  0  0  0  0  0  0
    2.1386   -0.4304    0.0000 C   0  0  0  0  0  0  0  0  0  0  0  0
    0.7097   -0.4304    0.0000 C   0  0  0  0  0  0  0  0  0  0  0  0
    2.1386    0.3946    0.0000 C   0  0  0  0  0  0  0  0  0  0  0  0
    0.7097    0.3946    0.0000 C   0  0  0  0  0  0  0  0  0  0  0  0
   -0.0048   -0.8429    0.0000 O   0  0  0  0  0  0  0  0  0  0  0  0
    2.8531    0.8071    0.0000 Cl  0  0  0  0  0  0  0  0  0  0  0  0
    1.4241    0.8071    0.0000 C   0  0  0  0  0  0  0  0  0  0  0  0
   -0.7193   -0.4304    0.0000 C   0  0  0  0  0  0  0  0  0  0  0  0
   -0.7193    0.3946    0.0000 C   0  0  0  0  0  0  0  0  0  0  0  0
   -1.4337   -0.8429    0.0000 C   0  0  0  0  0  0  0  0  0  0  0  0
    0.1057    0.3946    0.0000 Cl  0  0  0  0  0  0  0  0  0  0  0  0
   -1.4337    0.8071    0.0000 C   0  0  0  0  0  0  0  0  0  0  0  0
   -2.1482   -0.4304    0.0000 C   0  0  0  0  0  0  0  0  0  0  0  0
   -2.1482    0.3946    0.0000 C   0  0  0  0  0  0  0  0  0  0  0  0
   -2.8627   -0.8429    0.0000 Cl  0  0  0  0  0  0  0  0  0  0  0  0
  1  2  1  0  0  0  0 
  1  3  2  0  0  0  0 
  2  4  2  0  0  0  0 
  5  3  1  0  0  0  0 
  3  6  1  0  0  0  0 
  4  7  1  0  0  0  0 
  4  8  1  0  0  0  0 
  8  5  2  0  0  0  0 
  6  9  1  0  0  0  0 
  9 10  1  0  0  0  0 
  9 11  2  0  0  0  0 
 10 12  1  0  0  0  0 
 10 13  2  0  0  0  0 
 14 11  1  0  0  0  0 
 13 15  1  0  0  0  0 
 15 14  2  0  0  0  0 
 14 16  1  0  0  0  0 
M  END
> <Name>
2,4',5-Trichlorodiphenyl ether

> <Source>
Smiles

> <Tox>
-3.764

> <CAS>
65075-00-5

$$$$

  CDK

 12 13  0  0  0  0  0  0  0  0999 V2000
    3.4519   -0.7245    0.0000 C   0  0  0  0  0  0  0  0  0  0  0  0
    3.4519   -2.0527    0.0000 N   0  0  0  0  0  0  0  0  0  0  0  0
    2.3226   -0.0497    0.0000 N   0  0  0  0  0  0  0  0  0  0  0  0
    4.6097   -0.0355    0.0000 N   0  0  0  0  0  0  0  0  0  0  0  0
    2.3226   -2.7062    0.0000 C   0  0  0  0  0  0  0  0  0  0  0  0
    1.1506   -0.6890    0.0000 C   0  0  0  0  0  0  0  0  0  0  0  0
    5.7746   -0.6890    0.0000 C   0  0  0  0  0  0  0  0  0  0  0  0
    1.1506   -2.0527    0.0000 N   0  0  0  0  0  0  0  0  0  0  0  0
    2.3226   -4.0344    0.0000 N   0  0  0  0  0  0  0  0  0  0  0  0
    0.0000   -0.0000    0.0000 N   0  0  0  0  0  0  0  0  0  0  0  0
    7.1028   -0.6748    0.0000 C   0  0  0  0  0  0  0  0  0  0  0  0
    6.4493   -1.8112    0.0000 C   0  0  0  0  0  0  0  0  0  0  0  0
  1  2  2  0  0  0  0 
  1  3  1  0  0  0  0 
  1  4  1  0  0  0  0 
  2  5  1  0  0  0  0 
  3  6  2  0  0  0  0 
  4  7  1  0  0  0  0 
  8  5  2  0  0  0  0 
  5  9  1  0  0  0  0 
  8  6  1  0  0  0  0 
  6 10  1  0  0  0  0 
  7 11  1  0  0  0  0 
  7 12  1  0  0  0  0 
 11 12  1  0  0  0  0 
M  END
> <Name>
Cyromazine

> <Source>
DSSTox2DMolFile

> <Tox>
-8.474

> <CAS>
66215-27-8

$$$$

  CDK

 18 19  0  0  0  0  0  0  0  0999 V2000
    2.5266    1.6170    0.0000 C   0  0  0  0  0  0  0  0  0  0  0  0
    3.0319    2.4761    0.0000 C   0  0  0  0  0  0  0  0  0  0  0  0
    1.5665    1.6170    0.0000 C   0  0  0  0  0  0  0  0  0  0  0  0
    3.0319    0.7074    0.0000 C   0  0  0  0  0  0  0  0  0  0  0  0
    2.5266    3.3351    0.0000 C   0  0  0  0  0  0  0  0  0  0  0  0
    4.0426    2.4761    0.0000 C   0  0  0  0  0  0  0  0  0  0  0  0
    1.0106    0.7580    0.0000 C   0  0  0  0  0  0  0  0  0  0  0  0
    3.9920    0.7580    0.0000 N   0  0  0  0  0  0  0  0  0  0  0  0
    3.0319    4.2447    0.0000 C   0  0  0  0  0  0  0  0  0  0  0  0
    1.5665    3.3351    0.0000 Cl  0  0  0  0  0  0  0  0  0  0  0  0
    4.5479    3.3351    0.0000 C   0  0  0  0  0  0  0  0  0  0  0  0
    0.0000    0.7580    0.0000 C   0  0  0  0  0  0  0  0  0  0  0  0
    4.5984    0.0000    0.0000 N   0  0  0  0  0  0  0  0  0  0  0  0
    4.5984    1.5665    0.0000 C   0  0  0  0  0  0  0  0  0  0  0  0
    4.0426    4.2447    0.0000 C   0  0  0  0  0  0  0  0  0  0  0  0
    5.5585    0.3032    0.0000 C   0  0  0  0  0  0  0  0  0  0  0  0
    5.5585    1.2633    0.0000 N   0  0  0  0  0  0  0  0  0  0  0  0
    4.5479    5.1037    0.0000 Cl  0  0  0  0  0  0  0  0  0  0  0  0
  1  2  1  0  0  0  0 
  1  3  1  0  0  0  0 
  1  4  1  0  0  0  0 
  5  2  2  0  0  0  0 
  2  6  1  0  0  0  0 
  3  7  1  0  0  0  0 
  4  8  1  0  0  0  0 
  9  5  1  0  0  0  0 
  5 10  1  0  0  0  0 
  6 11  2  0  0  0  0 
  7 12  1  0  0  0  0 
  8 13  1  0  0  0  0 
 14  8  1  0  0  0  0 
 15  9  2  0  0  0  0 
 11 15  1  0  0  0  0 
 13 16  2  0  0  0  0 
 17 14  2  0  0  0  0 
 15 18  1  0  0  0  0 
 16 17  1  0  0  0  0 
M  END
> <Name>
Penconazole

> <Source>
NIST2DMolFile

> <Tox>
-5.556

> <CAS>
66246-88-6

$$$$

  CDK

 23 24  0  0  0  0  0  0  0  0999 V2000
    2.2909   -5.9435    0.0000 C   0  0  0  0  0  0  0  0  0  0  0  0
    2.2909   -7.2684    0.0000 C   0  0  0  0  0  0  0  0  0  0  0  0
    3.4594   -5.2903    0.0000 C   0  0  0  0  0  0  0  0  0  0  0  0
    1.1685   -5.2903    0.0000 C   0  0  0  0  0  0  0  0  0  0  0  0
    1.1685   -7.9584    0.0000 C   0  0  0  0  0  0  0  0  0  0  0  0
    3.4594   -7.9952    0.0000 C   0  0  0  0  0  0  0  0  0  0  0  0
    4.6094   -5.9803    0.0000 N   0  0  0  0  0  0  0  0  0  0  0  0
    3.4594   -4.0022    0.0000 O   0  0  0  0  0  0  0  0  0  0  0  0
    0.0000   -5.9803    0.0000 C   0  0  0  0  0  0  0  0  0  0  0  0
    0.0000   -7.2684    0.0000 C   0  0  0  0  0  0  0  0  0  0  0  0
    4.6094   -8.6669    0.0000 F   0  0  0  0  0  0  0  0  0  0  0  0
    4.1678   -6.8176    0.0000 F   0  0  0  0  0  0  0  0  0  0  0  0
    2.7601   -9.1453    0.0000 F   0  0  0  0  0  0  0  0  0  0  0  0
    5.7779   -5.2903    0.0000 C   0  0  0  0  0  0  0  0  0  0  0  0
    5.7779   -3.9654    0.0000 C   0  0  0  0  0  0  0  0  0  0  0  0
    6.9096   -5.9803    0.0000 C   0  0  0  0  0  0  0  0  0  0  0  0
    6.9096   -3.3122    0.0000 C   0  0  0  0  0  0  0  0  0  0  0  0
    8.0596   -5.2903    0.0000 C   0  0  0  0  0  0  0  0  0  0  0  0
    8.0596   -4.0022    0.0000 C   0  0  0  0  0  0  0  0  0  0  0  0
    6.9096   -1.9689    0.0000 O   0  0  0  0  0  0  0  0  0  0  0  0
    8.0596   -1.3157    0.0000 C   0  0  0  0  0  0  0  0  0  0  0  0
    8.0596   -0.0000    0.0000 C   0  0  0  0  0  0  0  0  0  0  0  0
    9.2005   -1.9689    0.0000 C   0  0  0  0  0  0  0  0  0  0  0  0
  1  2  2  0  0  0  0 
  1  3  1  0  0  0  0 
  1  4  1  0  0  0  0 
  2  5  1  0  0  0  0 
  2  6  1  0  0  0  0 
  3  7  1  0  0  0  0 
  3  8  2  0  0  0  0 
  4  9  2  0  0  0  0 
  5 10  2  0  0  0  0 
  6 11  1  0  0  0  0 
  6 12  1  0  0  0  0 
  6 13  1  0  0  0  0 
  7 14  1  0  0  0  0 
  9 10  1  0  0  0  0 
 14 15  1  0  0  0  0 
 14 16  2  0  0  0  0 
 15 17  2  0  0  0  0 
 16 18  1  0  0  0  0 
 17 19  1  0  0  0  0 
 17 20  1  0  0  0  0 
 18 19  2  0  0  0  0 
 20 21  1  0  0  0  0 
 21 22  1  0  0  0  0 
 21 23  1  0  0  0  0 
M  END
> <Name>
Flutolanil

> <Source>
DSSTox2DMolFile

> <Tox>
-7.312

> <CAS>
66332-96-5

$$$$

  CDK

 30 32  0  0  0  0  0  0  0  0999 V2000
    2.3024   -4.8021    0.0000 C   0  0  0  0  0  0  0  0  0  0  0  0
    1.1512   -4.1443    0.0000 C   0  0  0  0  0  0  0  0  0  0  0  0
    2.3024   -3.4646    0.0000 C   0  0  0  0  0  0  0  0  0  0  0  0
    2.9602   -5.9533    0.0000 C   0  0  0  0  0  0  0  0  0  0  0  0
    0.0000   -4.8021    0.0000 C   0  0  0  0  0  0  0  0  0  0  0  0
    0.0000   -3.4646    0.0000 C   0  0  0  0  0  0  0  0  0  0  0  0
    2.9602   -2.3243    0.0000 C   0  0  0  0  0  0  0  0  0  0  0  0
    4.2868   -5.9533    0.0000 O   0  0  0  0  0  0  0  0  0  0  0  0
    2.3024   -7.1045    0.0000 O   0  0  0  0  0  0  0  0  0  0  0  0
    2.3024   -1.1512    0.0000 C   0  0  0  0  0  0  0  0  0  0  0  0
    4.2868   -2.3243    0.0000 Br  0  0  0  0  0  0  0  0  0  0  0  0
    2.9602   -8.2557    0.0000 C   0  0  0  0  0  0  0  0  0  0  0  0
    3.4536   -0.4824    0.0000 Br  0  0  0  0  0  0  0  0  0  0  0  0
    1.1512   -1.8310    0.0000 Br  0  0  0  0  0  0  0  0  0  0  0  0
    1.6446   -0.0000    0.0000 Br  0  0  0  0  0  0  0  0  0  0  0  0
    2.3024   -9.4069    0.0000 C   0  0  0  0  0  0  0  0  0  0  0  0
    4.2868   -8.2557    0.0000 C   0  0  0  0  0  0  0  0  0  0  0  0
    1.6446  -10.5581    0.0000 N   0  0  0  0  0  0  0  0  0  0  0  0
    4.9666   -7.1045    0.0000 C   0  0  0  0  0  0  0  0  0  0  0  0
    4.9666   -9.4069    0.0000 C   0  0  0  0  0  0  0  0  0  0  0  0
    6.2932   -7.1045    0.0000 C   0  0  0  0  0  0  0  0  0  0  0  0
    6.2932   -9.4069    0.0000 C   0  0  0  0  0  0  0  0  0  0  0  0
    6.9510   -8.2557    0.0000 C   0  0  0  0  0  0  0  0  0  0  0  0
    6.9510   -5.9533    0.0000 O   0  0  0  0  0  0  0  0  0  0  0  0
    8.3105   -5.9533    0.0000 C   0  0  0  0  0  0  0  0  0  0  0  0
    8.9684   -4.8021    0.0000 C   0  0  0  0  0  0  0  0  0  0  0  0
    8.9684   -7.1045    0.0000 C   0  0  0  0  0  0  0  0  0  0  0  0
   10.2950   -4.8021    0.0000 C   0  0  0  0  0  0  0  0  0  0  0  0
   10.2950   -7.1045    0.0000 C   0  0  0  0  0  0  0  0  0  0  0  0
   10.9638   -5.9533    0.0000 C   0  0  0  0  0  0  0  0  0  0  0  0
  1  2  1  0  0  0  0 
  1  3  1  0  0  0  0 
  1  4  1  1  0  0  0 
  2  3  1  0  0  0  0 
  2  5  1  0  0  0  0 
  2  6  1  0  0  0  0 
  3  7  1  1  0  0  0 
  4  8  2  0  0  0  0 
  4  9  1  0  0  0  0 
  7 10  1  0  0  0  0 
  7 11  1  0  0  0  0 
  9 12  1  0  0  0  0 
 10 13  1  0  0  0  0 
 10 14  1  0  0  0  0 
 10 15  1  0  0  0  0 
 12 16  1  1  0  0  0 
 12 17  1  0  0  0  0 
 16 18  3  0  0  0  0 
 17 19  2  0  0  0  0 
 17 20  1  0  0  0  0 
 19 21  1  0  0  0  0 
 20 22  2  0  0  0  0 
 21 23  2  0  0  0  0 
 21 24  1  0  0  0  0 
 22 23  1  0  0  0  0 
 24 25  1  0  0  0  0 
 25 26  2  0  0  0  0 
 25 27  1  0  0  0  0 
 26 28  1  0  0  0  0 
 27 29  2  0  0  0  0 
 28 30  2  0  0  0  0 
 29 30  1  0  0  0  0 
M  END
> <Name>
TRALOMETHRIN

> <Source>
DSSTox2DMolFile

> <Tox>
-10.444

> <CAS>
66841-25-6

$$$$

  CDK

 20 21  0  0  0  0  0  0  0  0999 V2000
    4.8728    4.8311    0.0000 C   0  0  0  0  0  0  0  0  0  0  0  0
    4.1647    3.6233    0.0000 C   0  0  0  0  0  0  0  0  0  0  0  0
    2.7904    3.6233    0.0000 C   0  0  0  0  0  0  0  0  0  0  0  0
    4.8728    2.4156    0.0000 C   0  0  0  0  0  0  0  0  0  0  0  0
    2.0824    2.4156    0.0000 N   0  0  0  0  0  0  0  0  0  0  0  0
    6.2888    2.4156    0.0000 C   0  0  0  0  0  0  0  0  0  0  0  0
    2.7904    1.2078    0.0000 C   0  0  0  0  0  0  0  0  0  0  0  0
    0.6664    2.4156    0.0000 C   0  0  0  0  0  0  0  0  0  0  0  0
    6.9551    3.6233    0.0000 C   0  0  0  0  0  0  0  0  0  0  0  0
    6.9551    1.2078    0.0000 C   0  0  0  0  0  0  0  0  0  0  0  0
    2.0824    0.0000    0.0000 C   0  0  0  0  0  0  0  0  0  0  0  0
    0.0000    1.2078    0.0000 C   0  0  0  0  0  0  0  0  0  0  0  0
    8.3711    3.6233    0.0000 C   0  0  0  0  0  0  0  0  0  0  0  0
    8.3711    1.2078    0.0000 C   0  0  0  0  0  0  0  0  0  0  0  0
    0.6664    0.0000    0.0000 C   0  0  0  0  0  0  0  0  0  0  0  0
    9.0792    2.4156    0.0000 C   0  0  0  0  0  0  0  0  0  0  0  0
   10.4535    2.4156    0.0000 C   0  0  0  0  0  0  0  0  0  0  0  0
   10.4535    3.8316    0.0000 C   0  0  0  0  0  0  0  0  0  0  0  0
   11.8695    2.4156    0.0000 C   0  0  0  0  0  0  0  0  0  0  0  0
   10.4535    1.0412    0.0000 C   0  0  0  0  0  0  0  0  0  0  0  0
  1  2  1  0  0  0  0 
  2  3  1  0  0  0  0 
  2  4  1  0  0  0  0 
  3  5  1  0  0  0  0 
  4  6  1  0  0  0  0 
  5  7  1  0  0  0  0 
  5  8  1  0  0  0  0 
  6  9  2  0  0  0  0 
  6 10  1  0  0  0  0 
  7 11  1  0  0  0  0 
 12  8  1  0  0  0  0 
  9 13  1  0  0  0  0 
 14 10  2  0  0  0  0 
 11 15  1  0  0  0  0 
 15 12  1  0  0  0  0 
 13 16  2  0  0  0  0 
 16 14  1  0  0  0  0 
 16 17  1  0  0  0  0 
 17 18  1  0  0  0  0 
 17 19  1  0  0  0  0 
 17 20  1  0  0  0  0 
M  END
> <Name>
Fenpropidin

> <Source>
IndexNet2DMolFile

> <Tox>
-3.893

> <CAS>
67306-00-7

$$$$

  CDK

 18 20  0  0  0  0  0  0  0  0999 V2000
   -2.5710   -2.7560   -0.0001 Cl  0  0  0  0  0  0  0  0  0  0  0  0
   -2.1778   -1.0793    0.0002 C   0  0  0  0  0  0  0  0  0  0  0  0
   -0.8410   -0.6845    0.0001 C   0  0  0  0  0  0  0  0  0  0  0  0
   -3.1298   -0.0557    0.0001 C   0  0  0  0  0  0  0  0  0  0  0  0
    0.2310   -1.5248    0.0002 O   0  0  0  0  0  0  0  0  0  0  0  0
   -0.4188    0.6413   -0.0001 C   0  0  0  0  0  0  0  0  0  0  0  0
   -4.8210   -0.4718    0.0004 Cl  0  0  0  0  0  0  0  0  0  0  0  0
   -2.7481    1.2879   -0.0004 C   0  0  0  0  0  0  0  0  0  0  0  0
    1.3503   -0.7485    0.0000 C   0  0  0  0  0  0  0  0  0  0  0  0
    1.0063    0.5996   -0.0001 C   0  0  0  0  0  0  0  0  0  0  0  0
   -1.3954    1.6542   -0.0001 C   0  0  0  0  0  0  0  0  0  0  0  0
   -3.9039    2.5796   -0.0002 Cl  0  0  0  0  0  0  0  0  0  0  0  0
    2.6616   -1.2208   -0.0002 C   0  0  0  0  0  0  0  0  0  0  0  0
    2.0404    1.5538   -0.0001 C   0  0  0  0  0  0  0  0  0  0  0  0
    3.0285   -2.8942   -0.0002 Cl  0  0  0  0  0  0  0  0  0  0  0  0
    3.6719   -0.2546   -0.0002 C   0  0  0  0  0  0  0  0  0  0  0  0
    3.3693    1.1089    0.0001 C   0  0  0  0  0  0  0  0  0  0  0  0
    4.6477    2.2651    0.0005 Cl  0  0  0  0  0  0  0  0  0  0  0  0
  1  2  1  0  0  0  0 
  3  2  2  0  0  0  0 
  2  4  1  0  0  0  0 
  5  3  1  0  0  0  0 
  6  3  1  0  0  0  0 
  7  4  1  0  0  0  0 
  8  4  2  0  0  0  0 
  5  9  1  0  0  0  0 
  6 10  1  0  0  0  0 
  6 11  2  0  0  0  0 
 12  8  1  0  0  0  0 
 11  8  1  0  0  0  0 
 10  9  2  0  0  0  0 
  9 13  1  0  0  0  0 
 10 14  1  0  0  0  0 
 15 13  1  0  0  0  0 
 13 16  2  0  0  0  0 
 14 17  2  0  0  0  0 
 17 16  1  0  0  0  0 
 18 17  1  0  0  0  0 
M  END
> <Name>
DIBENZOFURAN, 2,3,4,6,8-PENTACHLORO-

> <Source>
Chemidplus3DMolFile

> <Tox>
-8.726

> <CAS>
67481-22-5

$$$$

  CDK

 35 37  0  0  0  0  0  0  0  0999 V2000
    3.2732   -5.7730    0.0000 C   0  0  0  0  0  0  0  0  0  0  0  0
    4.6129   -5.7730    0.0000 N   0  0  0  0  0  0  0  0  0  0  0  0
    2.5965   -4.6129    0.0000 N   0  0  0  0  0  0  0  0  0  0  0  0
    2.5965   -6.9056    0.0000 N   0  0  0  0  0  0  0  0  0  0  0  0
    5.2897   -6.9056    0.0000 N   0  0  0  0  0  0  0  0  0  0  0  0
    1.2430   -4.6129    0.0000 C   0  0  0  0  0  0  0  0  0  0  0  0
    1.2430   -6.9056    0.0000 C   0  0  0  0  0  0  0  0  0  0  0  0
    6.6017   -6.9056    0.0000 C   0  0  0  0  0  0  0  0  0  0  0  0
    0.5939   -5.7730    0.0000 C   0  0  0  0  0  0  0  0  0  0  0  0
    7.2646   -5.7730    0.0000 C   0  0  0  0  0  0  0  0  0  0  0  0
    7.2646   -8.0657    0.0000 C   0  0  0  0  0  0  0  0  0  0  0  0
    0.0000   -4.6958    0.0000 C   0  0  0  0  0  0  0  0  0  0  0  0
    0.0138   -6.8641    0.0000 C   0  0  0  0  0  0  0  0  0  0  0  0
    8.6181   -5.7730    0.0000 C   0  0  0  0  0  0  0  0  0  0  0  0
    8.6181   -8.0657    0.0000 C   0  0  0  0  0  0  0  0  0  0  0  0
    9.2949   -4.6129    0.0000 C   0  0  0  0  0  0  0  0  0  0  0  0
    9.2949   -9.1982    0.0000 C   0  0  0  0  0  0  0  0  0  0  0  0
   10.6208   -4.6129    0.0000 C   0  0  0  0  0  0  0  0  0  0  0  0
    8.6181   -3.4666    0.0000 C   0  0  0  0  0  0  0  0  0  0  0  0
   10.6208   -9.1982    0.0000 C   0  0  0  0  0  0  0  0  0  0  0  0
    8.6181  -10.3445    0.0000 C   0  0  0  0  0  0  0  0  0  0  0  0
   11.2975   -3.4666    0.0000 C   0  0  0  0  0  0  0  0  0  0  0  0
    9.2949   -2.3203    0.0000 C   0  0  0  0  0  0  0  0  0  0  0  0
   11.2975  -10.3445    0.0000 C   0  0  0  0  0  0  0  0  0  0  0  0
    9.2949  -11.4909    0.0000 C   0  0  0  0  0  0  0  0  0  0  0  0
   10.6208   -2.3203    0.0000 C   0  0  0  0  0  0  0  0  0  0  0  0
   10.6208  -11.4909    0.0000 C   0  0  0  0  0  0  0  0  0  0  0  0
   11.2975   -1.1325    0.0000 C   0  0  0  0  0  0  0  0  0  0  0  0
   11.2975  -12.6786    0.0000 C   0  0  0  0  0  0  0  0  0  0  0  0
   12.4714   -1.8369    0.0000 F   0  0  0  0  0  0  0  0  0  0  0  0
   10.1374   -0.4834    0.0000 F   0  0  0  0  0  0  0  0  0  0  0  0
   12.0019   -0.0000    0.0000 F   0  0  0  0  0  0  0  0  0  0  0  0
   12.4714  -11.9742    0.0000 F   0  0  0  0  0  0  0  0  0  0  0  0
   12.0019  -13.8111    0.0000 F   0  0  0  0  0  0  0  0  0  0  0  0
   10.1374  -13.3277    0.0000 F   0  0  0  0  0  0  0  0  0  0  0  0
  1  2  2  0  0  0  0 
  1  3  1  0  0  0  0 
  1  4  1  0  0  0  0 
  2  5  1  0  0  0  0 
  3  6  1  0  0  0  0 
  4  7  1  0  0  0  0 
  5  8  2  0  0  0  0 
  9  6  1  0  0  0  0 
  9  7  1  0  0  0  0 
 10  8  1  0  0  0  0 
 11  8  1  0  0  0  0 
  9 12  1  0  0  0  0 
  9 13  1  0  0  0  0 
 10 14  2  0  0  0  0 
 11 15  2  0  0  0  0 
 14 16  1  0  0  0  0 
 15 17  1  0  0  0  0 
 16 18  1  0  0  0  0 
 16 19  2  0  0  0  0 
 17 20  2  0  0  0  0 
 17 21  1  0  0  0  0 
 22 18  2  0  0  0  0 
 23 19  1  0  0  0  0 
 24 20  1  0  0  0  0 
 25 21  2  0  0  0  0 
 26 22  1  0  0  0  0 
 26 23  2  0  0  0  0 
 27 24  2  0  0  0  0 
 27 25  1  0  0  0  0 
 28 26  1  0  0  0  0 
 29 27  1  0  0  0  0 
 28 30  1  0  0  0  0 
 28 31  1  0  0  0  0 
 28 32  1  0  0  0  0 
 29 33  1  0  0  0  0 
 29 34  1  0  0  0  0 
 29 35  1  0  0  0  0 
M  END
> <Name>
HYDRAMETHYLNON

> <Source>
DSSTox2DMolFile

> <Tox>
-7.693

> <CAS>
67485-29-4

$$$$

  CDK

 18 20  0  0  0  0  0  0  0  0999 V2000
   -0.3830    2.9780    0.0001 Cl  0  0  0  0  0  0  0  0  0  0  0  0
   -1.0642    1.4078    0.0002 C   0  0  0  0  0  0  0  0  0  0  0  0
   -0.1751    0.3171    0.0000 C   0  0  0  0  0  0  0  0  0  0  0  0
   -2.4426    1.1551   -0.0001 C   0  0  0  0  0  0  0  0  0  0  0  0
    1.2415    0.1571    0.0000 C   0  0  0  0  0  0  0  0  0  0  0  0
   -0.7061   -0.9690    0.0000 C   0  0  0  0  0  0  0  0  0  0  0  0
   -3.5433    2.5068   -0.0002 Cl  0  0  0  0  0  0  0  0  0  0  0  0
   -2.9347   -0.1521    0.0001 C   0  0  0  0  0  0  0  0  0  0  0  0
    1.4723   -1.2149   -0.0001 C   0  0  0  0  0  0  0  0  0  0  0  0
    2.3514    1.0221    0.0001 C   0  0  0  0  0  0  0  0  0  0  0  0
    0.2923   -1.8955    0.0000 O   0  0  0  0  0  0  0  0  0  0  0  0
   -2.0711   -1.2513    0.0001 C   0  0  0  0  0  0  0  0  0  0  0  0
   -4.6542   -0.4399   -0.0002 Cl  0  0  0  0  0  0  0  0  0  0  0  0
    2.7398   -1.7946   -0.0004 C   0  0  0  0  0  0  0  0  0  0  0  0
    3.6387    0.4682    0.0002 C   0  0  0  0  0  0  0  0  0  0  0  0
   -2.5997   -2.8909    0.0005 Cl  0  0  0  0  0  0  0  0  0  0  0  0
    3.8269   -0.9157   -0.0003 C   0  0  0  0  0  0  0  0  0  0  0  0
    5.0111    1.5116    0.0003 Cl  0  0  0  0  0  0  0  0  0  0  0  0
  1  2  1  0  0  0  0 
  3  2  1  0  0  0  0 
  2  4  2  0  0  0  0 
  3  5  1  0  0  0  0 
  3  6  2  0  0  0  0 
  7  4  1  0  0  0  0 
  4  8  1  0  0  0  0 
  5  9  2  0  0  0  0 
  5 10  1  0  0  0  0 
 11  6  1  0  0  0  0 
  6 12  1  0  0  0  0 
 13  8  1  0  0  0  0 
 12  8  2  0  0  0  0 
 11  9  1  0  0  0  0 
  9 14  1  0  0  0  0 
 10 15  2  0  0  0  0 
 16 12  1  0  0  0  0 
 14 17  2  0  0  0  0 
 18 15  1  0  0  0  0 
 15 17  1  0  0  0  0 
M  END
> <Name>
DIBENZOFURAN, 1,2,3,4,8-PENTACHLORO-

> <Source>
Chemidplus3DMolFile

> <Tox>
-8.444

> <CAS>
67517-48-0

$$$$

  CDK

 20 22  0  0  0  0  0  0  0  0999 V2000
    2.6556    1.5032    0.0000 C   0  0  0  0  0  0  0  0  0  0  0  0
    2.6556    2.4552    0.0000 C   0  0  0  0  0  0  0  0  0  0  0  0
    3.5575    1.2026    0.0000 O   0  0  0  0  0  0  0  0  0  0  0  0
    1.7537    1.0021    0.0000 C   0  0  0  0  0  0  0  0  0  0  0  0
    3.5575    2.8060    0.0000 C   0  0  0  0  0  0  0  0  0  0  0  0
    1.7537    2.9563    0.0000 C   0  0  0  0  0  0  0  0  0  0  0  0
    4.1087    2.0043    0.0000 C   0  0  0  0  0  0  0  0  0  0  0  0
    0.9019    1.5032    0.0000 C   0  0  0  0  0  0  0  0  0  0  0  0
    1.7537    0.0000    0.0000 Cl  0  0  0  0  0  0  0  0  0  0  0  0
    4.0586    3.6578    0.0000 C   0  0  0  0  0  0  0  0  0  0  0  0
    0.9019    2.4552    0.0000 C   0  0  0  0  0  0  0  0  0  0  0  0
    5.1108    2.0043    0.0000 C   0  0  0  0  0  0  0  0  0  0  0  0
    0.0000    1.0021    0.0000 Cl  0  0  0  0  0  0  0  0  0  0  0  0
    5.0607    3.6578    0.0000 C   0  0  0  0  0  0  0  0  0  0  0  0
    3.5074    4.6599    0.0000 Cl  0  0  0  0  0  0  0  0  0  0  0  0
    0.0000    2.9563    0.0000 Cl  0  0  0  0  0  0  0  0  0  0  0  0
    5.6119    2.8060    0.0000 C   0  0  0  0  0  0  0  0  0  0  0  0
    5.7121    1.2026    0.0000 Cl  0  0  0  0  0  0  0  0  0  0  0  0
    5.5618    4.6098    0.0000 Cl  0  0  0  0  0  0  0  0  0  0  0  0
    6.5639    2.8060    0.0000 Cl  0  0  0  0  0  0  0  0  0  0  0  0
  1  2  2  0  0  0  0 
  3  1  1  0  0  0  0 
  1  4  1  0  0  0  0 
  2  5  1  0  0  0  0 
  6  2  1  0  0  0  0 
  7  3  1  0  0  0  0 
  4  8  2  0  0  0  0 
  4  9  1  0  0  0  0 
  5  7  2  0  0  0  0 
  5 10  1  0  0  0  0 
 11  6  2  0  0  0  0 
 12  7  1  0  0  0  0 
  8 11  1  0  0  0  0 
  8 13  1  0  0  0  0 
 10 14  2  0  0  0  0 
 10 15  1  0  0  0  0 
 11 16  1  0  0  0  0 
 17 12  2  0  0  0  0 
 12 18  1  0  0  0  0 
 14 17  1  0  0  0  0 
 14 19  1  0  0  0  0 
 17 20  1  0  0  0  0 
M  END
> <Name>
DIBENZOFURAN, 1,2,3,4,6,7,8-HEPTACHLORO-

> <Source>
NIST2DMolFile

> <Tox>
-10.452

> <CAS>
67562-39-4

$$$$

  CDK

 23 24  0  0  0  0  0  0  0  0999 V2000
    8.0969   -1.9939    0.0000 N   0  0  0  0  0  0  0  0  0  0  0  0
    6.9330   -1.3461    0.0000 C   0  0  0  0  0  0  0  0  0  0  0  0
    8.0969   -3.3400    0.0000 C   0  0  0  0  0  0  0  0  0  0  0  0
    9.3519   -1.5890    0.0000 C   0  0  0  0  0  0  0  0  0  0  0  0
    5.7792   -2.0040    0.0000 N   0  0  0  0  0  0  0  0  0  0  0  0
    6.9330   -0.0000    0.0000 O   0  0  0  0  0  0  0  0  0  0  0  0
    9.3519   -3.7448    0.0000 N   0  0  0  0  0  0  0  0  0  0  0  0
   10.1211   -2.6619    0.0000 C   0  0  0  0  0  0  0  0  0  0  0  0
    5.7792   -3.3501    0.0000 C   0  0  0  0  0  0  0  0  0  0  0  0
    4.6456   -1.3461    0.0000 C   0  0  0  0  0  0  0  0  0  0  0  0
    4.6456   -4.0080    0.0000 C   0  0  0  0  0  0  0  0  0  0  0  0
    3.4918   -2.0141    0.0000 C   0  0  0  0  0  0  0  0  0  0  0  0
    4.6456   -5.3440    0.0000 O   0  0  0  0  0  0  0  0  0  0  0  0
    2.3380   -1.3562    0.0000 C   0  0  0  0  0  0  0  0  0  0  0  0
    3.4918   -6.0120    0.0000 C   0  0  0  0  0  0  0  0  0  0  0  0
    3.4918   -7.3479    0.0000 C   0  0  0  0  0  0  0  0  0  0  0  0
    2.3380   -5.3541    0.0000 C   0  0  0  0  0  0  0  0  0  0  0  0
    2.3380   -8.0058    0.0000 C   0  0  0  0  0  0  0  0  0  0  0  0
    4.6456   -8.0159    0.0000 Cl  0  0  0  0  0  0  0  0  0  0  0  0
    1.1842   -6.0221    0.0000 C   0  0  0  0  0  0  0  0  0  0  0  0
    2.3380   -4.0181    0.0000 Cl  0  0  0  0  0  0  0  0  0  0  0  0
    1.1842   -7.3277    0.0000 C   0  0  0  0  0  0  0  0  0  0  0  0
    0.0000   -7.9653    0.0000 Cl  0  0  0  0  0  0  0  0  0  0  0  0
  1  2  1  0  0  0  0 
  1  3  1  0  0  0  0 
  1  4  1  0  0  0  0 
  2  5  1  0  0  0  0 
  2  6  2  0  0  0  0 
  7  3  2  0  0  0  0 
  4  8  2  0  0  0  0 
  5  9  1  0  0  0  0 
  5 10  1  0  0  0  0 
  7  8  1  0  0  0  0 
 11  9  1  0  0  0  0 
 10 12  1  0  0  0  0 
 13 11  1  0  0  0  0 
 12 14  1  0  0  0  0 
 15 13  1  0  0  0  0 
 15 16  2  0  0  0  0 
 15 17  1  0  0  0  0 
 16 18  1  0  0  0  0 
 16 19  1  0  0  0  0 
 17 20  2  0  0  0  0 
 17 21  1  0  0  0  0 
 18 22  2  0  0  0  0 
 20 22  1  0  0  0  0 
 22 23  1  0  0  0  0 
M  END
> <Name>
PROCHLORAZ

> <Source>
DSSTox2DMolFile

> <Tox>
-5.947

> <CAS>
67747-09-5

$$$$

  CDK

 14 15  0  0  0  0  0  0  0  0999 V2000
   -0.9925   -2.9564   -0.0005 Cl  0  0  0  0  0  0  0  0  0  0  0  0
   -0.9958   -1.2094    0.0004 C   0  0  0  0  0  0  0  0  0  0  0  0
    0.2063   -0.4833    0.0002 C   0  0  0  0  0  0  0  0  0  0  0  0
   -2.2254   -0.5504    0.0004 C   0  0  0  0  0  0  0  0  0  0  0  0
    0.1605    0.9312    0.0000 C   0  0  0  0  0  0  0  0  0  0  0  0
    1.4529   -1.1301    0.0001 C   0  0  0  0  0  0  0  0  0  0  0  0
   -3.7424   -1.3866   -0.0004 Cl  0  0  0  0  0  0  0  0  0  0  0  0
   -2.2705    0.8406    0.0002 C   0  0  0  0  0  0  0  0  0  0  0  0
   -1.0862    1.5780    0.0001 C   0  0  0  0  0  0  0  0  0  0  0  0
    1.3626    1.6572   -0.0002 C   0  0  0  0  0  0  0  0  0  0  0  0
    2.6374   -0.3928   -0.0002 C   0  0  0  0  0  0  0  0  0  0  0  0
   -1.2565    3.3053   -0.0001 Cl  0  0  0  0  0  0  0  0  0  0  0  0
    2.5923    0.9981   -0.0004 C   0  0  0  0  0  0  0  0  0  0  0  0
    4.1573   -1.2013    0.0004 Cl  0  0  0  0  0  0  0  0  0  0  0  0
  1  2  1  0  0  0  0 
  3  2  1  0  0  0  0 
  2  4  2  0  0  0  0 
  3  5  2  0  0  0  0 
  3  6  1  0  0  0  0 
  7  4  1  0  0  0  0 
  4  8  1  0  0  0  0 
  5  9  1  0  0  0  0 
  5 10  1  0  0  0  0 
  6 11  2  0  0  0  0 
  9  8  2  0  0  0  0 
 12  9  1  0  0  0  0 
 10 13  2  0  0  0  0 
 14 11  1  0  0  0  0 
 11 13  1  0  0  0  0 
M  END
> <Name>
1,2,4,7-TETRACHLORONAPHTHALENE

> <Source>
Chemidplus3DMolFile

> <Tox>
-5.071

> <CAS>
67922-21-8

$$$$

  CDK

 15 16  0  0  0  0  0  0  0  0999 V2000
   -0.3114   -3.1360    0.0015 Cl  0  0  0  0  0  0  0  0  0  0  0  0
   -0.5667   -1.4046   -0.0006 C   0  0  0  0  0  0  0  0  0  0  0  0
    0.5270   -0.5238   -0.0005 C   0  0  0  0  0  0  0  0  0  0  0  0
   -1.8737   -0.9166    0.0000 C   0  0  0  0  0  0  0  0  0  0  0  0
    0.2917    0.8718    0.0002 C   0  0  0  0  0  0  0  0  0  0  0  0
    1.8492   -0.9974   -0.0012 C   0  0  0  0  0  0  0  0  0  0  0  0
   -3.2230   -2.0242   -0.0004 Cl  0  0  0  0  0  0  0  0  0  0  0  0
   -2.1051    0.4557    0.0007 C   0  0  0  0  0  0  0  0  0  0  0  0
   -1.0305    1.3454    0.0009 C   0  0  0  0  0  0  0  0  0  0  0  0
    1.3855    1.7526    0.0003 C   0  0  0  0  0  0  0  0  0  0  0  0
    2.9240   -0.1078   -0.0012 C   0  0  0  0  0  0  0  0  0  0  0  0
   -3.7427    1.0600   -0.0010 Cl  0  0  0  0  0  0  0  0  0  0  0  0
   -1.3555    3.0651    0.0006 Cl  0  0  0  0  0  0  0  0  0  0  0  0
    2.6925    1.2645   -0.0004 C   0  0  0  0  0  0  0  0  0  0  0  0
    4.5389   -0.7046    0.0011 Cl  0  0  0  0  0  0  0  0  0  0  0  0
  1  2  1  0  0  0  0 
  3  2  1  0  0  0  0 
  2  4  2  0  0  0  0 
  3  5  2  0  0  0  0 
  3  6  1  0  0  0  0 
  7  4  1  0  0  0  0 
  4  8  1  0  0  0  0 
  5  9  1  0  0  0  0 
  5 10  1  0  0  0  0 
  6 11  2  0  0  0  0 
 12  8  1  0  0  0  0 
  9  8  2  0  0  0  0 
 13  9  1  0  0  0  0 
 10 14  2  0  0  0  0 
 15 11  1  0  0  0  0 
 11 14  1  0  0  0  0 
M  END
> <Name>
1,2,3,4,6-Pentachloronaphthalene

> <Source>
Chemidplus3DMolFile

> <Tox>
-5.959

> <CAS>
67922-26-3

$$$$

  CDK

 11 11  0  0  0  0  0  0  0  0999 V2000
    1.4163   -2.0181   -0.0005 O   0  0  0  0  0  0  0  0  0  0  0  0
    0.3332   -1.1898    0.0003 C   0  0  0  0  0  0  0  0  0  0  0  0
    0.4864    0.1966    0.0003 C   0  0  0  0  0  0  0  0  0  0  0  0
   -0.9441   -1.7503    0.0000 C   0  0  0  0  0  0  0  0  0  0  0  0
    1.7809    0.7850   -0.0001 N   0  0  0  0  0  0  0  0  0  0  0  0
   -0.6376    1.0225    0.0002 C   0  0  0  0  0  0  0  0  0  0  0  0
   -2.0682   -0.9244   -0.0001 C   0  0  0  0  0  0  0  0  0  0  0  0
    1.8784    2.0351   -0.0005 O   0  0  0  0  0  0  0  0  0  0  0  0
    2.7868    0.0366    0.0005 O   0  0  0  0  0  0  0  0  0  0  0  0
   -1.9150    0.4621    0.0000 C   0  0  0  0  0  0  0  0  0  0  0  0
   -3.1171    1.3446    0.0000 C   0  0  0  0  0  0  0  0  0  0  0  0
  1  2  1  0  0  0  0 
  3  2  2  0  0  0  0 
  2  4  1  0  0  0  0 
  5  3  1  0  0  0  0 
  3  6  1  0  0  0  0 
  7  4  2  0  0  0  0 
  8  5  1  0  0  0  0 
  9  5  2  0  0  0  0 
 10  6  2  0  0  0  0 
 10  7  1  0  0  0  0 
 10 11  1  0  0  0  0 
M  CHG  1   5   1
M  CHG  1   8  -1
M  END
> <Name>
3(or 4)-METHYL-2-NITROPHENOL (mixture)

> <Source>
Chemidplus3DMolFile

> <Tox>
-1.108

> <CAS>
68137-08-6

$$$$

  CDK

 17 18  0  0  0  0  0  0  0  0999 V2000
    4.5978   -3.3171    0.0000 C   0  0  0  0  0  0  0  0  0  0  0  0
    4.5978   -1.9902    0.0000 O   0  0  0  0  0  0  0  0  0  0  0  0
    5.7496   -3.9897    0.0000 N   0  0  0  0  0  0  0  0  0  0  0  0
    3.4461   -3.9897    0.0000 N   0  0  0  0  0  0  0  0  0  0  0  0
    6.9106   -3.3171    0.0000 C   0  0  0  0  0  0  0  0  0  0  0  0
    2.2943   -3.3171    0.0000 C   0  0  0  0  0  0  0  0  0  0  0  0
    6.9106   -1.9902    0.0000 C   0  0  0  0  0  0  0  0  0  0  0  0
    8.0623   -3.9897    0.0000 C   0  0  0  0  0  0  0  0  0  0  0  0
    1.1518   -3.9897    0.0000 C   0  0  0  0  0  0  0  0  0  0  0  0
    2.2943   -1.9902    0.0000 C   0  0  0  0  0  0  0  0  0  0  0  0
    8.0623   -1.3268    0.0000 C   0  0  0  0  0  0  0  0  0  0  0  0
    9.2141   -3.3171    0.0000 C   0  0  0  0  0  0  0  0  0  0  0  0
    0.0000   -3.3171    0.0000 C   0  0  0  0  0  0  0  0  0  0  0  0
    1.1518   -1.3268    0.0000 C   0  0  0  0  0  0  0  0  0  0  0  0
    9.2141   -1.9902    0.0000 N   0  0  0  0  0  0  0  0  0  0  0  0
    8.0623   -0.0000    0.0000 Cl  0  0  0  0  0  0  0  0  0  0  0  0
    0.0000   -1.9902    0.0000 C   0  0  0  0  0  0  0  0  0  0  0  0
  1  2  2  0  0  0  0 
  1  3  1  0  0  0  0 
  1  4  1  0  0  0  0 
  3  5  1  0  0  0  0 
  4  6  1  0  0  0  0 
  7  5  2  0  0  0  0 
  8  5  1  0  0  0  0 
  6  9  2  0  0  0  0 
  6 10  1  0  0  0  0 
 11  7  1  0  0  0  0 
 12  8  2  0  0  0  0 
  9 13  1  0  0  0  0 
 10 14  2  0  0  0  0 
 15 11  2  0  0  0  0 
 11 16  1  0  0  0  0 
 15 12  1  0  0  0  0 
 13 17  2  0  0  0  0 
 14 17  1  0  0  0  0 
M  END
> <Name>
Forchlorfenuron

> <Source>
DSSTox2DMolFile

> <Tox>
-9.462

> <CAS>
68157-60-8

$$$$

  CDK

 17 18  0  0  0  0  0  0  0  0999 V2000
   -1.9456    1.3783    0.0000 C   0  0  0  0  0  0  0  0  0  0  0  0
   -1.5331    2.0927    0.0000 C   0  0  0  0  0  0  0  0  0  0  0  0
   -1.5331    0.6638    0.0000 S   0  0  0  0  0  0  0  0  0  0  0  0
   -0.8186    1.0763    0.0000 O   0  0  0  0  0  0  0  0  0  0  0  0
   -2.2476    0.2513    0.0000 O   0  0  0  0  0  0  0  0  0  0  0  0
   -1.1206   -0.0507    0.0000 O   0  0  0  0  0  0  0  0  0  0  0  0
   -0.2956   -0.0507    0.0000 C   0  0  0  0  0  0  0  0  0  0  0  0
    0.1169   -0.7652    0.0000 C   0  0  0  0  0  0  0  0  0  0  0  0
    0.1169    0.6638    0.0000 C   0  0  0  0  0  0  0  0  0  0  0  0
    0.9419   -0.7652    0.0000 C   0  0  0  0  0  0  0  0  0  0  0  0
    0.9419    0.6638    0.0000 C   0  0  0  0  0  0  0  0  0  0  0  0
    1.4939   -1.3783    0.0000 C   0  0  0  0  0  0  0  0  0  0  0  0
    1.3544   -0.0507    0.0000 C   0  0  0  0  0  0  0  0  0  0  0  0
    2.2476   -1.0427    0.0000 C   0  0  0  0  0  0  0  0  0  0  0  0
    0.8265   -1.8632    0.0000 C   0  0  0  0  0  0  0  0  0  0  0  0
    1.9064   -2.0927    0.0000 C   0  0  0  0  0  0  0  0  0  0  0  0
    2.1614   -0.2222    0.0000 O   0  0  0  0  0  0  0  0  0  0  0  0
  1  2  1  0  0  0  0 
  1  3  1  0  0  0  0 
  3  4  2  0  0  0  0 
  3  5  2  0  0  0  0 
  3  6  1  0  0  0  0 
  6  7  1  0  0  0  0 
  8  7  1  0  0  0  0 
  7  9  2  0  0  0  0 
 10  8  2  0  0  0  0 
  9 11  1  0  0  0  0 
 12 10  1  0  0  0  0 
 10 13  1  0  0  0  0 
 13 11  2  0  0  0  0 
 14 12  1  0  0  0  0 
 12 15  1  0  0  0  0 
 12 16  1  0  0  0  0 
 17 13  1  0  0  0  0 
 17 14  1  0  0  0  0 
M  END
> <Name>
BENFURESATE

> <Source>
Other

> <Tox>
-4.680

> <CAS>
68505-69-1

$$$$

  CDK

 23 24  0  0  0  0  0  0  0  0999 V2000
    8.3511   -7.5764    0.0000 N   0  0  0  0  0  0  0  0  0  0  0  0
    7.0629   -7.3241    0.0000 C   0  0  0  0  0  0  0  0  0  0  0  0
    9.0088   -6.4413    0.0000 C   0  0  0  0  0  0  0  0  0  0  0  0
    6.9007   -5.9908    0.0000 N   0  0  0  0  0  0  0  0  0  0  0  0
    8.1259   -5.4593    0.0000 C   0  0  0  0  0  0  0  0  0  0  0  0
    5.7746   -5.3242    0.0000 C   0  0  0  0  0  0  0  0  0  0  0  0
    5.7746   -3.9909    0.0000 C   0  0  0  0  0  0  0  0  0  0  0  0
    4.6125   -5.9908    0.0000 N   0  0  0  0  0  0  0  0  0  0  0  0
    6.9007   -3.3152    0.0000 O   0  0  0  0  0  0  0  0  0  0  0  0
    3.4594   -5.3242    0.0000 C   0  0  0  0  0  0  0  0  0  0  0  0
    6.9007   -2.0180    0.0000 C   0  0  0  0  0  0  0  0  0  0  0  0
    2.2972   -5.9908    0.0000 C   0  0  0  0  0  0  0  0  0  0  0  0
    3.4594   -3.9909    0.0000 C   0  0  0  0  0  0  0  0  0  0  0  0
    8.0629   -1.3333    0.0000 C   0  0  0  0  0  0  0  0  0  0  0  0
    1.1441   -5.3242    0.0000 C   0  0  0  0  0  0  0  0  0  0  0  0
    2.2972   -7.3241    0.0000 C   0  0  0  0  0  0  0  0  0  0  0  0
    2.2972   -3.3152    0.0000 C   0  0  0  0  0  0  0  0  0  0  0  0
    8.0629   -0.0000    0.0000 C   0  0  0  0  0  0  0  0  0  0  0  0
    1.1441   -3.9909    0.0000 C   0  0  0  0  0  0  0  0  0  0  0  0
    2.2972   -8.6574    0.0000 F   0  0  0  0  0  0  0  0  0  0  0  0
    3.6395   -7.3241    0.0000 F   0  0  0  0  0  0  0  0  0  0  0  0
    0.9639   -7.3241    0.0000 F   0  0  0  0  0  0  0  0  0  0  0  0
    0.0000   -3.3152    0.0000 Cl  0  0  0  0  0  0  0  0  0  0  0  0
  1  2  2  0  0  0  0 
  1  3  1  0  0  0  0 
  4  2  1  0  0  0  0 
  3  5  2  0  0  0  0 
  4  5  1  0  0  0  0 
  4  6  1  0  0  0  0 
  6  7  1  0  0  0  0 
  6  8  2  0  0  0  0 
  7  9  1  0  0  0  0 
  8 10  1  0  0  0  0 
  9 11  1  0  0  0  0 
 10 12  2  0  0  0  0 
 10 13  1  0  0  0  0 
 11 14  1  0  0  0  0 
 12 15  1  0  0  0  0 
 12 16  1  0  0  0  0 
 13 17  2  0  0  0  0 
 14 18  1  0  0  0  0 
 15 19  2  0  0  0  0 
 16 20  1  0  0  0  0 
 16 21  1  0  0  0  0 
 16 22  1  0  0  0  0 
 17 19  1  0  0  0  0 
 19 23  1  0  0  0  0 
M  END
> <Name>
TRIFLUMIZOLE

> <Source>
DSSTox2DMolFile

> <Tox>
-5.854

> <CAS>
68694-11-1

$$$$

  CDK

 16 17  0  0  0  0  0  0  0  0999 V2000
    1.4241   -1.6679    0.0000 Cl  0  0  0  0  0  0  0  0  0  0  0  0
    1.4241   -0.8429    0.0000 C   0  0  0  0  0  0  0  0  0  0  0  0
    2.1386   -0.4304    0.0000 C   0  0  0  0  0  0  0  0  0  0  0  0
    0.7097   -0.4304    0.0000 C   0  0  0  0  0  0  0  0  0  0  0  0
    2.1386    0.3946    0.0000 C   0  0  0  0  0  0  0  0  0  0  0  0
    0.7097    0.3946    0.0000 C   0  0  0  0  0  0  0  0  0  0  0  0
   -0.0048   -0.8429    0.0000 O   0  0  0  0  0  0  0  0  0  0  0  0
    1.4241    0.8071    0.0000 C   0  0  0  0  0  0  0  0  0  0  0  0
   -0.7193   -0.4304    0.0000 C   0  0  0  0  0  0  0  0  0  0  0  0
   -0.7193    0.3946    0.0000 C   0  0  0  0  0  0  0  0  0  0  0  0
   -1.4337   -0.8429    0.0000 C   0  0  0  0  0  0  0  0  0  0  0  0
    0.1057    0.3946    0.0000 Cl  0  0  0  0  0  0  0  0  0  0  0  0
   -1.4337    0.8071    0.0000 C   0  0  0  0  0  0  0  0  0  0  0  0
   -2.1482   -0.4304    0.0000 C   0  0  0  0  0  0  0  0  0  0  0  0
   -2.1482    0.3946    0.0000 C   0  0  0  0  0  0  0  0  0  0  0  0
   -2.8627    0.8071    0.0000 Cl  0  0  0  0  0  0  0  0  0  0  0  0
  1  2  1  0  0  0  0 
  2  3  1  0  0  0  0 
  2  4  2  0  0  0  0 
  3  5  2  0  0  0  0 
  6  4  1  0  0  0  0 
  4  7  1  0  0  0  0 
  5  8  1  0  0  0  0 
  8  6  2  0  0  0  0 
  7  9  1  0  0  0  0 
  9 10  1  0  0  0  0 
  9 11  2  0  0  0  0 
 10 12  1  0  0  0  0 
 10 13  2  0  0  0  0 
 14 11  1  0  0  0  0 
 13 15  1  0  0  0  0 
 15 14  2  0  0  0  0 
 15 16  1  0  0  0  0 
M  END
> <Name>
2,2',4-Trichlorodiphenyl ether

> <Source>
Smiles

> <Tox>
-3.726

> <CAS>
68914-97-6

$$$$

  CDK

 21 22  0  0  0  0  0  0  0  0999 V2000
    4.6641   -4.5982    0.0000 S   0  0  0  0  0  0  0  0  0  0  0  0
    3.9802   -5.7519    0.0000 C   0  0  0  0  0  0  0  0  0  0  0  0
    3.9802   -3.4528    0.0000 C   0  0  0  0  0  0  0  0  0  0  0  0
    2.6535   -5.7519    0.0000 N   0  0  0  0  0  0  0  0  0  0  0  0
    4.6641   -6.9138    0.0000 N   0  0  0  0  0  0  0  0  0  0  0  0
    2.6535   -3.4528    0.0000 N   0  0  0  0  0  0  0  0  0  0  0  0
    1.9942   -4.5982    0.0000 C   0  0  0  0  0  0  0  0  0  0  0  0
    1.9942   -6.9138    0.0000 C   0  0  0  0  0  0  0  0  0  0  0  0
    5.9909   -6.9138    0.0000 C   0  0  0  0  0  0  0  0  0  0  0  0
    1.9942   -2.3156    0.0000 C   0  0  0  0  0  0  0  0  0  0  0  0
    0.6675   -4.5982    0.0000 O   0  0  0  0  0  0  0  0  0  0  0  0
    2.6535   -8.0510    0.0000 C   0  0  0  0  0  0  0  0  0  0  0  0
    0.6675   -6.9138    0.0000 C   0  0  0  0  0  0  0  0  0  0  0  0
    5.9909   -5.5706    0.0000 C   0  0  0  0  0  0  0  0  0  0  0  0
    5.9909   -8.2405    0.0000 C   0  0  0  0  0  0  0  0  0  0  0  0
    7.3176   -6.9138    0.0000 C   0  0  0  0  0  0  0  0  0  0  0  0
    0.6675   -2.3156    0.0000 C   0  0  0  0  0  0  0  0  0  0  0  0
    2.6535   -1.1537    0.0000 C   0  0  0  0  0  0  0  0  0  0  0  0
    0.0000   -1.1537    0.0000 C   0  0  0  0  0  0  0  0  0  0  0  0
    1.9942   -0.0000    0.0000 C   0  0  0  0  0  0  0  0  0  0  0  0
    0.6675   -0.0000    0.0000 C   0  0  0  0  0  0  0  0  0  0  0  0
  1  2  1  0  0  0  0 
  1  3  1  0  0  0  0 
  2  4  1  0  0  0  0 
  2  5  2  0  0  0  0 
  6  3  1  0  0  0  0 
  4  7  1  0  0  0  0 
  4  8  1  0  0  0  0 
  5  9  1  0  0  0  0 
  7  6  1  0  0  0  0 
  6 10  1  0  0  0  0 
  7 11  2  0  0  0  0 
  8 12  1  0  0  0  0 
  8 13  1  0  0  0  0 
  9 14  1  0  0  0  0 
  9 15  1  0  0  0  0 
  9 16  1  0  0  0  0 
 10 17  2  0  0  0  0 
 10 18  1  0  0  0  0 
 17 19  1  0  0  0  0 
 18 20  2  0  0  0  0 
 19 21  2  0  0  0  0 
 20 21  1  0  0  0  0 
M  END
> <Name>
Buprofezin

> <Source>
DSSTox2DMolFile

> <Tox>
-5.027

> <CAS>
69327-76-0

$$$$

  CDK

 25 26  0  0  0  0  0  0  0  0999 V2000
   11.2969   -1.1696    0.0000 C   0  0  0  0  0  0  0  0  0  0  0  0
   10.6324   -2.2993    0.0000 C   0  0  0  0  0  0  0  0  0  0  0  0
   12.6260   -1.1696    0.0000 O   0  0  0  0  0  0  0  0  0  0  0  0
   10.6324   -0.0000    0.0000 O   0  0  0  0  0  0  0  0  0  0  0  0
   11.2969   -3.4688    0.0000 C   0  0  0  0  0  0  0  0  0  0  0  0
    9.3033   -2.2993    0.0000 O   0  0  0  0  0  0  0  0  0  0  0  0
   13.2905   -2.2993    0.0000 C   0  0  0  0  0  0  0  0  0  0  0  0
    8.6388   -3.4688    0.0000 C   0  0  0  0  0  0  0  0  0  0  0  0
    9.3033   -4.6118    0.0000 C   0  0  0  0  0  0  0  0  0  0  0  0
    7.3098   -3.4688    0.0000 C   0  0  0  0  0  0  0  0  0  0  0  0
    8.6388   -5.7548    0.0000 C   0  0  0  0  0  0  0  0  0  0  0  0
    6.6452   -4.6118    0.0000 C   0  0  0  0  0  0  0  0  0  0  0  0
    7.3098   -5.7548    0.0000 C   0  0  0  0  0  0  0  0  0  0  0  0
    6.6452   -6.9243    0.0000 O   0  0  0  0  0  0  0  0  0  0  0  0
    5.3162   -6.9243    0.0000 C   0  0  0  0  0  0  0  0  0  0  0  0
    4.6517   -8.0673    0.0000 N   0  0  0  0  0  0  0  0  0  0  0  0
    4.6517   -5.7548    0.0000 C   0  0  0  0  0  0  0  0  0  0  0  0
    3.3226   -8.0673    0.0000 C   0  0  0  0  0  0  0  0  0  0  0  0
    3.3226   -5.7548    0.0000 C   0  0  0  0  0  0  0  0  0  0  0  0
    5.3162   -4.6118    0.0000 Cl  0  0  0  0  0  0  0  0  0  0  0  0
    2.6448   -6.9243    0.0000 C   0  0  0  0  0  0  0  0  0  0  0  0
    1.3290   -6.9243    0.0000 C   0  0  0  0  0  0  0  0  0  0  0  0
    0.0000   -6.9243    0.0000 F   0  0  0  0  0  0  0  0  0  0  0  0
    1.3290   -8.2534    0.0000 F   0  0  0  0  0  0  0  0  0  0  0  0
    1.3290   -5.5820    0.0000 F   0  0  0  0  0  0  0  0  0  0  0  0
  1  2  1  0  0  0  0 
  1  3  1  0  0  0  0 
  1  4  2  0  0  0  0 
  2  5  1  0  0  0  0 
  2  6  1  0  0  0  0 
  3  7  1  0  0  0  0 
  6  8  1  0  0  0  0 
  8  9  2  0  0  0  0 
  8 10  1  0  0  0  0 
  9 11  1  0  0  0  0 
 10 12  2  0  0  0  0 
 11 13  2  0  0  0  0 
 12 13  1  0  0  0  0 
 13 14  1  0  0  0  0 
 14 15  1  0  0  0  0 
 16 15  2  0  0  0  0 
 15 17  1  0  0  0  0 
 16 18  1  0  0  0  0 
 17 19  2  0  0  0  0 
 17 20  1  0  0  0  0 
 18 21  2  0  0  0  0 
 21 19  1  0  0  0  0 
 21 22  1  0  0  0  0 
 22 23  1  0  0  0  0 
 22 24  1  0  0  0  0 
 22 25  1  0  0  0  0 
M  END
> <Name>
HALOXYFOP-METHYL

> <Source>
DSSTox2DMolFile

> <Tox>
-5.222

> <CAS>
69806-40-2

$$$$

  CDK

  9  8  0  0  0  0  0  0  0  0999 V2000
    0.5969    1.2731   -0.2941 F   0  0  0  0  0  0  0  0  0  0  0  0
    0.6561   -0.0281    0.0759 C   0  0  0  0  0  0  0  0  0  0  0  0
    0.7726   -0.0768    1.4244 F   0  0  0  0  0  0  0  0  0  0  0  0
   -0.5408   -0.6875   -0.3160 O   0  0  0  0  0  0  0  0  0  0  0  0
    1.8488   -0.6905   -0.5655 C   0  0  0  0  0  0  0  0  0  0  0  0
   -1.6988   -0.1071    0.2577 C   0  0  0  0  0  0  0  0  0  0  0  0
    2.9734   -0.0281   -0.1875 F   0  0  0  0  0  0  0  0  0  0  0  0
   -2.7715   -0.8108   -0.1816 F   0  0  0  0  0  0  0  0  0  0  0  0
   -1.8368    1.1558   -0.2133 F   0  0  0  0  0  0  0  0  0  0  0  0
  1  2  1  0  0  0  0 
  3  2  1  0  0  0  0 
  4  2  1  0  0  0  0 
  2  5  1  0  0  0  0 
  4  6  1  0  0  0  0 
  7  5  1  0  0  0  0 
  8  6  1  0  0  0  0 
  9  6  1  0  0  0  0 
M  END
> <Name>
1-(DIFLUOROMETHOXY)-1,1,2-TRIFLUOROETHANE

> <Source>
Chemidplus3DMolFile

> <Tox>
2.568

> <CAS>
69948-24-9

$$$$

  CDK

 33 35  0  0  0  0  0  0  0  0999 V2000
   10.3632   -9.3154    0.0000 C   0  0  0  0  0  0  0  0  0  0  0  0
   10.3632   -7.9797    0.0000 C   0  0  0  0  0  0  0  0  0  0  0  0
   11.5147   -7.3118    0.0000 C   0  0  0  0  0  0  0  0  0  0  0  0
    9.2117   -7.3118    0.0000 C   0  0  0  0  0  0  0  0  0  0  0  0
    8.0603   -7.9797    0.0000 C   0  0  0  0  0  0  0  0  0  0  0  0
    9.2117   -5.9876    0.0000 C   0  0  0  0  0  0  0  0  0  0  0  0
    8.0603   -9.3154    0.0000 O   0  0  0  0  0  0  0  0  0  0  0  0
    6.9088   -7.3118    0.0000 O   0  0  0  0  0  0  0  0  0  0  0  0
    8.0603   -5.3198    0.0000 C   0  0  0  0  0  0  0  0  0  0  0  0
   10.3632   -5.3198    0.0000 C   0  0  0  0  0  0  0  0  0  0  0  0
    5.7573   -7.9797    0.0000 C   0  0  0  0  0  0  0  0  0  0  0  0
    8.0603   -3.9956    0.0000 C   0  0  0  0  0  0  0  0  0  0  0  0
   10.3632   -3.9956    0.0000 C   0  0  0  0  0  0  0  0  0  0  0  0
    5.7573   -9.3154    0.0000 C   0  0  0  0  0  0  0  0  0  0  0  0
    4.6059   -7.3118    0.0000 C   0  0  0  0  0  0  0  0  0  0  0  0
    9.2117   -3.3277    0.0000 C   0  0  0  0  0  0  0  0  0  0  0  0
    5.7573  -10.6396    0.0000 N   0  0  0  0  0  0  0  0  0  0  0  0
    3.4544   -7.9797    0.0000 C   0  0  0  0  0  0  0  0  0  0  0  0
    4.6059   -5.9876    0.0000 C   0  0  0  0  0  0  0  0  0  0  0  0
    9.2117   -1.9920    0.0000 O   0  0  0  0  0  0  0  0  0  0  0  0
    2.3029   -7.3118    0.0000 C   0  0  0  0  0  0  0  0  0  0  0  0
    3.4544   -5.3198    0.0000 C   0  0  0  0  0  0  0  0  0  0  0  0
   10.3632   -1.3357    0.0000 C   0  0  0  0  0  0  0  0  0  0  0  0
    2.3029   -5.9876    0.0000 C   0  0  0  0  0  0  0  0  0  0  0  0
    3.4544   -3.9956    0.0000 O   0  0  0  0  0  0  0  0  0  0  0  0
   10.3632   -0.0000    0.0000 F   0  0  0  0  0  0  0  0  0  0  0  0
   11.5147   -1.9920    0.0000 F   0  0  0  0  0  0  0  0  0  0  0  0
    2.3029   -3.3277    0.0000 C   0  0  0  0  0  0  0  0  0  0  0  0
    1.1515   -3.9956    0.0000 C   0  0  0  0  0  0  0  0  0  0  0  0
    2.3029   -1.9920    0.0000 C   0  0  0  0  0  0  0  0  0  0  0  0
    0.0000   -3.3277    0.0000 C   0  0  0  0  0  0  0  0  0  0  0  0
    1.1515   -1.3357    0.0000 C   0  0  0  0  0  0  0  0  0  0  0  0
    0.0000   -1.9920    0.0000 C   0  0  0  0  0  0  0  0  0  0  0  0
  1  2  1  0  0  0  0 
  2  3  1  0  0  0  0 
  2  4  1  0  0  0  0 
  4  5  1  0  0  0  0 
  4  6  1  0  0  0  0 
  5  7  2  0  0  0  0 
  5  8  1  0  0  0  0 
  6  9  2  0  0  0  0 
  6 10  1  0  0  0  0 
  8 11  1  0  0  0  0 
  9 12  1  0  0  0  0 
 13 10  2  0  0  0  0 
 11 14  1  0  0  0  0 
 11 15  1  0  0  0  0 
 12 16  2  0  0  0  0 
 16 13  1  0  0  0  0 
 14 17  3  0  0  0  0 
 15 18  2  0  0  0  0 
 15 19  1  0  0  0  0 
 16 20  1  0  0  0  0 
 18 21  1  0  0  0  0 
 22 19  2  0  0  0  0 
 20 23  1  0  0  0  0 
 21 24  2  0  0  0  0 
 24 22  1  0  0  0  0 
 22 25  1  0  0  0  0 
 23 26  1  0  0  0  0 
 23 27  1  0  0  0  0 
 25 28  1  0  0  0  0 
 28 29  2  0  0  0  0 
 28 30  1  0  0  0  0 
 29 31  1  0  0  0  0 
 32 30  2  0  0  0  0 
 31 33  2  0  0  0  0 
 33 32  1  0  0  0  0 
M  END
> <Name>
FLUCYTHRINATE

> <Source>
DSSTox2DMolFile

> <Tox>
-8.060

> <CAS>
70124-77-5

$$$$

  CDK

 20 20  0  0  0  0  0  0  0  0999 V2000
    4.6092   -4.6577    0.0000 C   0  0  0  0  0  0  0  0  0  0  0  0
    5.7636   -4.0200    0.0000 O   0  0  0  0  0  0  0  0  0  0  0  0
    3.4630   -4.0038    0.0000 C   0  0  0  0  0  0  0  0  0  0  0  0
    4.6092   -6.0057    0.0000 O   0  0  0  0  0  0  0  0  0  0  0  0
    3.4630   -2.6558    0.0000 N   0  0  0  0  0  0  0  0  0  0  0  0
    2.3087   -4.6577    0.0000 C   0  0  0  0  0  0  0  0  0  0  0  0
    3.4630   -6.6596    0.0000 C   0  0  0  0  0  0  0  0  0  0  0  0
    4.6092   -2.0019    0.0000 C   0  0  0  0  0  0  0  0  0  0  0  0
    2.3087   -2.0019    0.0000 C   0  0  0  0  0  0  0  0  0  0  0  0
    4.6092   -0.6700    0.0000 O   0  0  0  0  0  0  0  0  0  0  0  0
    5.7636   -2.6558    0.0000 C   0  0  0  0  0  0  0  0  0  0  0  0
    1.1543   -2.6558    0.0000 C   0  0  0  0  0  0  0  0  0  0  0  0
    2.3087   -0.6700    0.0000 C   0  0  0  0  0  0  0  0  0  0  0  0
    6.9179   -2.0019    0.0000 O   0  0  0  0  0  0  0  0  0  0  0  0
    0.0000   -2.0019    0.0000 C   0  0  0  0  0  0  0  0  0  0  0  0
    1.1543   -3.9877    0.0000 C   0  0  0  0  0  0  0  0  0  0  0  0
    1.1543   -0.0000    0.0000 C   0  0  0  0  0  0  0  0  0  0  0  0
    3.4630   -0.0000    0.0000 C   0  0  0  0  0  0  0  0  0  0  0  0
    8.0722   -2.6719    0.0000 C   0  0  0  0  0  0  0  0  0  0  0  0
    0.0000   -0.6700    0.0000 C   0  0  0  0  0  0  0  0  0  0  0  0
  1  2  2  0  0  0  0 
  1  3  1  0  0  0  0 
  1  4  1  0  0  0  0 
  3  5  1  1  0  0  0 
  3  6  1  0  0  0  0 
  4  7  1  0  0  0  0 
  5  8  1  0  0  0  0 
  5  9  1  0  0  0  0 
  8 10  2  0  0  0  0 
  8 11  1  0  0  0  0 
  9 12  1  0  0  0  0 
  9 13  2  0  0  0  0 
 11 14  1  0  0  0  0 
 12 15  2  0  0  0  0 
 12 16  1  0  0  0  0 
 13 17  1  0  0  0  0 
 13 18  1  0  0  0  0 
 14 19  1  0  0  0  0 
 15 20  1  0  0  0  0 
 17 20  2  0  0  0  0 
M  END
> <Name>
Metalaxyl-M

> <Source>
DSSTox2DMolFile

> <Tox>
-4.606

> <CAS>
70630-17-0

$$$$

  CDK

 25 27  0  0  0  0  0  0  0  0999 V2000
    9.5063   -8.2491    0.0000 C   0  0  0  0  0  0  0  0  0  0  0  0
    8.8392   -7.0945    0.0000 C   0  0  0  0  0  0  0  0  0  0  0  0
   10.8406   -8.2491    0.0000 O   0  0  0  0  0  0  0  0  0  0  0  0
    8.8392   -9.3909    0.0000 O   0  0  0  0  0  0  0  0  0  0  0  0
    7.5050   -7.0945    0.0000 C   0  0  0  0  0  0  0  0  0  0  0  0
    9.5063   -5.9399    0.0000 O   0  0  0  0  0  0  0  0  0  0  0  0
   11.4948   -9.3909    0.0000 C   0  0  0  0  0  0  0  0  0  0  0  0
    8.8392   -4.7724    0.0000 C   0  0  0  0  0  0  0  0  0  0  0  0
   12.8291   -9.3909    0.0000 C   0  0  0  0  0  0  0  0  0  0  0  0
    7.5050   -4.7724    0.0000 C   0  0  0  0  0  0  0  0  0  0  0  0
    9.5063   -3.6306    0.0000 C   0  0  0  0  0  0  0  0  0  0  0  0
    6.8507   -3.6306    0.0000 C   0  0  0  0  0  0  0  0  0  0  0  0
    8.8392   -2.4760    0.0000 C   0  0  0  0  0  0  0  0  0  0  0  0
    7.5050   -2.4760    0.0000 C   0  0  0  0  0  0  0  0  0  0  0  0
    6.8507   -1.3214    0.0000 O   0  0  0  0  0  0  0  0  0  0  0  0
    5.5165   -1.3214    0.0000 C   0  0  0  0  0  0  0  0  0  0  0  0
    4.7211   -0.2566    0.0000 N   0  0  0  0  0  0  0  0  0  0  0  0
    4.7211   -2.3990    0.0000 O   0  0  0  0  0  0  0  0  0  0  0  0
    3.4510   -0.6671    0.0000 C   0  0  0  0  0  0  0  0  0  0  0  0
    3.4510   -2.0013    0.0000 C   0  0  0  0  0  0  0  0  0  0  0  0
    2.3092   -0.0000    0.0000 C   0  0  0  0  0  0  0  0  0  0  0  0
    2.3092   -2.6556    0.0000 C   0  0  0  0  0  0  0  0  0  0  0  0
    1.1546   -0.6671    0.0000 C   0  0  0  0  0  0  0  0  0  0  0  0
    1.1546   -2.0013    0.0000 C   0  0  0  0  0  0  0  0  0  0  0  0
    0.0000   -2.6556    0.0000 Cl  0  0  0  0  0  0  0  0  0  0  0  0
  1  2  1  0  0  0  0 
  1  3  1  0  0  0  0 
  1  4  2  0  0  0  0 
  2  5  1  1  0  0  0 
  2  6  1  0  0  0  0 
  3  7  1  0  0  0  0 
  6  8  1  0  0  0  0 
  7  9  1  0  0  0  0 
  8 10  2  0  0  0  0 
  8 11  1  0  0  0  0 
 10 12  1  0  0  0  0 
 11 13  2  0  0  0  0 
 12 14  2  0  0  0  0 
 13 14  1  0  0  0  0 
 14 15  1  0  0  0  0 
 15 16  1  0  0  0  0 
 17 16  2  0  0  0  0 
 16 18  1  0  0  0  0 
 17 19  1  0  0  0  0 
 18 20  1  0  0  0  0 
 19 20  2  0  0  0  0 
 19 21  1  0  0  0  0 
 20 22  1  0  0  0  0 
 23 21  2  0  0  0  0 
 22 24  2  0  0  0  0 
 24 23  1  0  0  0  0 
 24 25  1  0  0  0  0 
M  END
> <Name>
Fenoxaprop-ethyl

> <Source>
DSSTox2DMolFile

> <Tox>
-7.523

> <CAS>
71283-80-2

$$$$

  CDK

 27 29  0  0  0  0  0  0  0  0999 V2000
    0.0000    5.1643    0.0000 C   0  0  0  0  0  0  0  0  0  0  0  0
    0.9579    6.2055    0.0000 C   0  0  0  0  0  0  0  0  0  0  0  0
    0.6247    7.5798    0.0000 N   0  0  0  0  0  0  0  0  0  0  0  0
    2.2906    6.0389    0.0000 C   0  0  0  0  0  0  0  0  0  0  0  0
    1.8325    8.2462    0.0000 N   0  0  0  0  0  0  0  0  0  0  0  0
    2.9153    7.3300    0.0000 C   0  0  0  0  0  0  0  0  0  0  0  0
    2.9986    4.8311    0.0000 C   0  0  0  0  0  0  0  0  0  0  0  0
    1.9991    9.6622    0.0000 C   0  0  0  0  0  0  0  0  0  0  0  0
    4.2480    7.6215    0.0000 O   0  0  0  0  0  0  0  0  0  0  0  0
    4.4146    4.8311    0.0000 O   0  0  0  0  0  0  0  0  0  0  0  0
    2.2906    3.6233    0.0000 C   0  0  0  0  0  0  0  0  0  0  0  0
    5.1643    6.5387    0.0000 C   0  0  0  0  0  0  0  0  0  0  0  0
    0.9162    3.6233    0.0000 C   0  0  0  0  0  0  0  0  0  0  0  0
    2.9986    2.4156    0.0000 C   0  0  0  0  0  0  0  0  0  0  0  0
    6.4970    6.7469    0.0000 C   0  0  0  0  0  0  0  0  0  0  0  0
    0.2082    2.4156    0.0000 C   0  0  0  0  0  0  0  0  0  0  0  0
    2.2906    1.2078    0.0000 C   0  0  0  0  0  0  0  0  0  0  0  0
    4.4146    2.4156    0.0000 Cl  0  0  0  0  0  0  0  0  0  0  0  0
    7.3716    5.6641    0.0000 O   0  0  0  0  0  0  0  0  0  0  0  0
    6.9968    8.0380    0.0000 C   0  0  0  0  0  0  0  0  0  0  0  0
    0.9162    1.2078    0.0000 C   0  0  0  0  0  0  0  0  0  0  0  0
    6.1222    9.1624    0.0000 C   0  0  0  0  0  0  0  0  0  0  0  0
    8.4128    8.2462    0.0000 C   0  0  0  0  0  0  0  0  0  0  0  0
    0.2082    0.0000    0.0000 Cl  0  0  0  0  0  0  0  0  0  0  0  0
    6.6220   10.4535    0.0000 C   0  0  0  0  0  0  0  0  0  0  0  0
    8.9126    9.5789    0.0000 C   0  0  0  0  0  0  0  0  0  0  0  0
    8.0380   10.6201    0.0000 C   0  0  0  0  0  0  0  0  0  0  0  0
  1  2  1  0  0  0  0 
  2  3  2  0  0  0  0 
  2  4  1  0  0  0  0 
  3  5  1  0  0  0  0 
  6  4  2  0  0  0  0 
  4  7  1  0  0  0  0 
  5  8  1  0  0  0  0 
  5  6  1  0  0  0  0 
  6  9  1  0  0  0  0 
  7 10  2  0  0  0  0 
  7 11  1  0  0  0  0 
  9 12  1  0  0  0  0 
 11 13  1  0  0  0  0 
 11 14  2  0  0  0  0 
 12 15  1  0  0  0  0 
 13 16  2  0  0  0  0 
 17 14  1  0  0  0  0 
 14 18  1  0  0  0  0 
 15 19  2  0  0  0  0 
 15 20  1  0  0  0  0 
 16 21  1  0  0  0  0 
 21 17  2  0  0  0  0 
 20 22  1  0  0  0  0 
 20 23  2  0  0  0  0 
 21 24  1  0  0  0  0 
 22 25  2  0  0  0  0 
 26 23  1  0  0  0  0 
 25 27  1  0  0  0  0 
 27 26  2  0  0  0  0 
M  END
> <Name>
Pyrazoxyfen

> <Source>
IndexNet2DMolFile

> <Tox>
-6.444

> <CAS>
71561-11-0

$$$$

  CDK

 17 19  0  0  0  0  0  0  0  0999 V2000
    1.2840    3.0625   -0.0013 Cl  0  0  0  0  0  0  0  0  0  0  0  0
    1.7460    1.4236    0.0006 C   0  0  0  0  0  0  0  0  0  0  0  0
    0.7540    0.4257    0.0003 C   0  0  0  0  0  0  0  0  0  0  0  0
    3.0928    1.0365    0.0010 C   0  0  0  0  0  0  0  0  0  0  0  0
   -0.6715    0.4058    0.0000 C   0  0  0  0  0  0  0  0  0  0  0  0
    1.1559   -0.9064    0.0002 C   0  0  0  0  0  0  0  0  0  0  0  0
    3.4540   -0.3126    0.0005 C   0  0  0  0  0  0  0  0  0  0  0  0
   -1.0361   -0.9370   -0.0001 C   0  0  0  0  0  0  0  0  0  0  0  0
   -1.6910    1.3756   -0.0001 C   0  0  0  0  0  0  0  0  0  0  0  0
    0.0711   -1.7302    0.0001 O   0  0  0  0  0  0  0  0  0  0  0  0
    2.4864   -1.3216    0.0002 C   0  0  0  0  0  0  0  0  0  0  0  0
    5.1225   -0.7455   -0.0011 Cl  0  0  0  0  0  0  0  0  0  0  0  0
   -2.3547   -1.3892   -0.0003 C   0  0  0  0  0  0  0  0  0  0  0  0
   -3.0266    0.9512   -0.0006 C   0  0  0  0  0  0  0  0  0  0  0  0
   -2.7475   -3.0566    0.0001 Cl  0  0  0  0  0  0  0  0  0  0  0  0
   -3.3499   -0.4076   -0.0005 C   0  0  0  0  0  0  0  0  0  0  0  0
   -4.2890    2.1257    0.0010 Cl  0  0  0  0  0  0  0  0  0  0  0  0
  1  2  1  0  0  0  0 
  3  2  1  0  0  0  0 
  2  4  2  0  0  0  0 
  5  3  1  0  0  0  0 
  3  6  2  0  0  0  0 
  4  7  1  0  0  0  0 
  5  8  2  0  0  0  0 
  5  9  1  0  0  0  0 
 10  6  1  0  0  0  0 
  6 11  1  0  0  0  0 
 12  7  1  0  0  0  0 
 11  7  2  0  0  0  0 
 10  8  1  0  0  0  0 
  8 13  1  0  0  0  0 
  9 14  2  0  0  0  0 
 15 13  1  0  0  0  0 
 13 16  2  0  0  0  0 
 17 14  1  0  0  0  0 
 14 16  1  0  0  0  0 
M  END
> <Name>
DIBENZOFURAN, 1,3,6,8-TETRACHLORO-

> <Source>
Chemidplus3DMolFile

> <Tox>
-7.569

> <CAS>
71998-72-6

$$$$

  CDK

 21 22  0  0  0  0  0  0  0  0999 V2000
    4.4151    4.9670    0.0000 O   0  0  0  0  0  0  0  0  0  0  0  0
    3.4618    4.6659    0.0000 C   0  0  0  0  0  0  0  0  0  0  0  0
    4.9670    4.1642    0.0000 C   0  0  0  0  0  0  0  0  0  0  0  0
    3.4618    3.6625    0.0000 C   0  0  0  0  0  0  0  0  0  0  0  0
    2.6591    5.2680    0.0000 C   0  0  0  0  0  0  0  0  0  0  0  0
    2.5587    4.1642    0.0000 C   0  0  0  0  0  0  0  0  0  0  0  0
    4.4151    3.3615    0.0000 N   0  0  0  0  0  0  0  0  0  0  0  0
    5.9704    4.1642    0.0000 O   0  0  0  0  0  0  0  0  0  0  0  0
    2.6591    3.0604    0.0000 O   0  0  0  0  0  0  0  0  0  0  0  0
    1.7058    4.8666    0.0000 O   0  0  0  0  0  0  0  0  0  0  0  0
    2.6591    6.2714    0.0000 O   0  0  0  0  0  0  0  0  0  0  0  0
    4.7161    2.4082    0.0000 C   0  0  0  0  0  0  0  0  0  0  0  0
    0.9031    5.4185    0.0000 C   0  0  0  0  0  0  0  0  0  0  0  0
    4.0639    1.6557    0.0000 C   0  0  0  0  0  0  0  0  0  0  0  0
    5.6694    2.2075    0.0000 C   0  0  0  0  0  0  0  0  0  0  0  0
    0.0000    5.0171    0.0000 C   0  0  0  0  0  0  0  0  0  0  0  0
    4.3649    0.7024    0.0000 C   0  0  0  0  0  0  0  0  0  0  0  0
    6.0206    1.2543    0.0000 C   0  0  0  0  0  0  0  0  0  0  0  0
    5.3182    0.5017    0.0000 C   0  0  0  0  0  0  0  0  0  0  0  0
    3.6625    0.0000    0.0000 Cl  0  0  0  0  0  0  0  0  0  0  0  0
    7.0240    1.0536    0.0000 Cl  0  0  0  0  0  0  0  0  0  0  0  0
  2  1  1  0  0  0  0 
  1  3  1  0  0  0  0 
  4  2  1  0  0  0  0 
  2  5  1  0  0  0  0 
  2  6  1  0  0  0  0 
  3  7  1  0  0  0  0 
  3  8  2  0  0  0  0 
  7  4  1  0  0  0  0 
  4  9  2  0  0  0  0 
  5 10  1  0  0  0  0 
  5 11  2  0  0  0  0 
  7 12  1  0  0  0  0 
 10 13  1  0  0  0  0 
 14 12  2  0  0  0  0 
 12 15  1  0  0  0  0 
 13 16  1  0  0  0  0 
 17 14  1  0  0  0  0 
 15 18  2  0  0  0  0 
 19 17  2  0  0  0  0 
 17 20  1  0  0  0  0 
 18 19  1  0  0  0  0 
 18 21  1  0  0  0  0 
M  END
> <Name>
CHLOZOLINATE

> <Source>
NIST2DMolFile

> <Tox>
-7.022

> <CAS>
72391-46-9

$$$$

  CDK

 17 19  0  0  0  0  0  0  0  0999 V2000
    1.2127    3.7779    0.0000 C   0  0  0  0  0  0  0  0  0  0  0  0
    1.2127    2.3787    0.0000 C   0  0  0  0  0  0  0  0  0  0  0  0
    2.4253    4.4775    0.0000 C   0  0  0  0  0  0  0  0  0  0  0  0
    0.0000    4.4775    0.0000 Cl  0  0  0  0  0  0  0  0  0  0  0  0
    2.4253    1.6791    0.0000 C   0  0  0  0  0  0  0  0  0  0  0  0
    3.6380    3.7779    0.0000 C   0  0  0  0  0  0  0  0  0  0  0  0
    3.6380    2.3787    0.0000 C   0  0  0  0  0  0  0  0  0  0  0  0
    4.8506    4.4775    0.0000 N   0  0  0  0  0  0  0  0  0  0  0  0
    4.8506    1.6791    0.0000 N   0  0  0  0  0  0  0  0  0  0  0  0
    6.0633    3.7779    0.0000 N   0  0  0  0  0  0  0  0  0  0  0  0
    4.8506    5.8767    0.0000 O   0  0  0  0  0  0  0  0  0  0  0  0
    6.0633    2.3787    0.0000 C   0  0  0  0  0  0  0  0  0  0  0  0
    7.2760    1.6791    0.0000 N   0  0  0  0  0  0  0  0  0  0  0  0
    7.4159    0.2798    0.0000 C   0  0  0  0  0  0  0  0  0  0  0  0
    8.5353    2.2388    0.0000 C   0  0  0  0  0  0  0  0  0  0  0  0
    8.7685    0.0000    0.0000 C   0  0  0  0  0  0  0  0  0  0  0  0
    9.4681    1.2127    0.0000 N   0  0  0  0  0  0  0  0  0  0  0  0
  1  2  2  0  0  0  0 
  1  3  1  0  0  0  0 
  1  4  1  0  0  0  0 
  2  5  1  0  0  0  0 
  6  3  2  0  0  0  0 
  5  7  2  0  0  0  0 
  7  6  1  0  0  0  0 
  6  8  1  0  0  0  0 
  7  9  1  0  0  0  0 
 10  8  2  0  0  0  0 
  8 11  1  0  0  0  0 
  9 12  2  0  0  0  0 
 12 10  1  0  0  0  0 
 12 13  1  0  0  0  0 
 13 14  1  0  0  0  0 
 13 15  1  0  0  0  0 
 14 16  2  0  0  0  0 
 17 15  2  0  0  0  0 
 16 17  1  0  0  0  0 
M  CHG  1   8   1
M  CHG  1  11  -1
M  END
> <Name>
TRIAZOXIDE

> <Source>
IndexNet2DMolFile

> <Tox>
-8.648

> <CAS>
72459-58-6

$$$$

  CDK

 22 23  0  0  0  0  0  0  0  0999 V2000
   12.6536   -1.3379    0.0000 C   0  0  0  0  0  0  0  0  0  0  0  0
   12.6536   -0.0000    0.0000 O   0  0  0  0  0  0  0  0  0  0  0  0
   13.8142   -1.9988    0.0000 O   0  0  0  0  0  0  0  0  0  0  0  0
   11.5092   -1.9988    0.0000 N   0  0  0  0  0  0  0  0  0  0  0  0
   14.9748   -1.3379    0.0000 C   0  0  0  0  0  0  0  0  0  0  0  0
   10.3486   -1.3379    0.0000 C   0  0  0  0  0  0  0  0  0  0  0  0
   16.1193   -1.9988    0.0000 C   0  0  0  0  0  0  0  0  0  0  0  0
    9.2041   -1.9988    0.0000 C   0  0  0  0  0  0  0  0  0  0  0  0
    8.0596   -1.3379    0.0000 O   0  0  0  0  0  0  0  0  0  0  0  0
    6.9152   -1.9988    0.0000 C   0  0  0  0  0  0  0  0  0  0  0  0
    6.9152   -3.3367    0.0000 C   0  0  0  0  0  0  0  0  0  0  0  0
    5.7546   -1.3379    0.0000 C   0  0  0  0  0  0  0  0  0  0  0  0
    5.7546   -3.9976    0.0000 C   0  0  0  0  0  0  0  0  0  0  0  0
    4.5940   -1.9988    0.0000 C   0  0  0  0  0  0  0  0  0  0  0  0
    4.5940   -3.3367    0.0000 C   0  0  0  0  0  0  0  0  0  0  0  0
    3.4495   -3.9976    0.0000 O   0  0  0  0  0  0  0  0  0  0  0  0
    2.2889   -3.3367    0.0000 C   0  0  0  0  0  0  0  0  0  0  0  0
    1.1284   -3.9976    0.0000 C   0  0  0  0  0  0  0  0  0  0  0  0
    2.2889   -1.9988    0.0000 C   0  0  0  0  0  0  0  0  0  0  0  0
    0.0000   -3.3367    0.0000 C   0  0  0  0  0  0  0  0  0  0  0  0
    1.1284   -1.3379    0.0000 C   0  0  0  0  0  0  0  0  0  0  0  0
    0.0000   -1.9988    0.0000 C   0  0  0  0  0  0  0  0  0  0  0  0
  1  2  2  0  0  0  0 
  1  3  1  0  0  0  0 
  1  4  1  0  0  0  0 
  3  5  1  0  0  0  0 
  4  6  1  0  0  0  0 
  5  7  1  0  0  0  0 
  6  8  1  0  0  0  0 
  8  9  1  0  0  0  0 
  9 10  1  0  0  0  0 
 10 11  2  0  0  0  0 
 10 12  1  0  0  0  0 
 11 13  1  0  0  0  0 
 12 14  2  0  0  0  0 
 13 15  2  0  0  0  0 
 14 15  1  0  0  0  0 
 15 16  1  0  0  0  0 
 16 17  1  0  0  0  0 
 17 18  2  0  0  0  0 
 17 19  1  0  0  0  0 
 18 20  1  0  0  0  0 
 19 21  2  0  0  0  0 
 20 22  2  0  0  0  0 
 21 22  1  0  0  0  0 
M  END
> <Name>
FENOXYCARB

> <Source>
DSSTox2DMolFile

> <Tox>
-8.187

> <CAS>
72490-01-8

$$$$

  CDK

 20 21  0  0  0  0  0  0  0  0999 V2000
    7.3733    3.6400    0.0000 C   0  0  0  0  0  0  0  0  0  0  0  0
    7.3733    2.2400    0.0000 C   0  0  0  0  0  0  0  0  0  0  0  0
    8.7267    4.0600    0.0000 S   0  0  0  0  0  0  0  0  0  0  0  0
    6.2533    4.4800    0.0000 C   0  0  0  0  0  0  0  0  0  0  0  0
    8.7267    1.8200    0.0000 N   0  0  0  0  0  0  0  0  0  0  0  0
    6.2533    1.4000    0.0000 C   0  0  0  0  0  0  0  0  0  0  0  0
    9.5200    2.9400    0.0000 C   0  0  0  0  0  0  0  0  0  0  0  0
    4.9933    3.9200    0.0000 O   0  0  0  0  0  0  0  0  0  0  0  0
    6.3933    5.8800    0.0000 O   0  0  0  0  0  0  0  0  0  0  0  0
    4.9933    2.0067    0.0000 F   0  0  0  0  0  0  0  0  0  0  0  0
    6.3933    0.0000    0.0000 F   0  0  0  0  0  0  0  0  0  0  0  0
    5.0400    0.7000    0.0000 F   0  0  0  0  0  0  0  0  0  0  0  0
   10.9200    2.9400    0.0000 Cl  0  0  0  0  0  0  0  0  0  0  0  0
    3.8267    4.7133    0.0000 C   0  0  0  0  0  0  0  0  0  0  0  0
    2.5667    4.1533    0.0000 C   0  0  0  0  0  0  0  0  0  0  0  0
    1.4467    4.9933    0.0000 C   0  0  0  0  0  0  0  0  0  0  0  0
    2.4267    2.7533    0.0000 C   0  0  0  0  0  0  0  0  0  0  0  0
    0.1400    4.4333    0.0000 C   0  0  0  0  0  0  0  0  0  0  0  0
    1.1200    2.1933    0.0000 C   0  0  0  0  0  0  0  0  0  0  0  0
    0.0000    3.0333    0.0000 C   0  0  0  0  0  0  0  0  0  0  0  0
  1  2  2  0  0  0  0 
  1  3  1  0  0  0  0 
  1  4  1  0  0  0  0 
  2  5  1  0  0  0  0 
  2  6  1  0  0  0  0 
  7  3  1  0  0  0  0 
  4  8  1  0  0  0  0 
  4  9  2  0  0  0  0 
  5  7  2  0  0  0  0 
  6 10  1  0  0  0  0 
  6 11  1  0  0  0  0 
  6 12  1  0  0  0  0 
  7 13  1  0  0  0  0 
  8 14  1  0  0  0  0 
 14 15  1  0  0  0  0 
 15 16  2  0  0  0  0 
 15 17  1  0  0  0  0 
 16 18  1  0  0  0  0 
 19 17  2  0  0  0  0 
 18 20  2  0  0  0  0 
 20 19  1  0  0  0  0 
M  END
> <Name>
Flurazole

> <Source>
IndexNet2DMolFile

> <Tox>
-6.533

> <CAS>
72850-64-7

$$$$

  CDK

 23 24  0  0  0  0  0  0  0  0999 V2000
    7.2265   -1.7908    0.0000 C   0  0  0  0  0  0  0  0  0  0  0  0
    8.5433   -1.6012    0.0000 C   0  0  0  0  0  0  0  0  0  0  0  0
    8.0692   -2.8337    0.0000 C   0  0  0  0  0  0  0  0  0  0  0  0
    5.9940   -1.3168    0.0000 C   0  0  0  0  0  0  0  0  0  0  0  0
    9.0279   -0.3687    0.0000 C   0  0  0  0  0  0  0  0  0  0  0  0
    9.8601   -1.3905    0.0000 C   0  0  0  0  0  0  0  0  0  0  0  0
    8.2589   -4.1505    0.0000 C   0  0  0  0  0  0  0  0  0  0  0  0
    5.7833   -0.0000    0.0000 O   0  0  0  0  0  0  0  0  0  0  0  0
    4.9511   -2.1490    0.0000 O   0  0  0  0  0  0  0  0  0  0  0  0
    9.4914   -4.6351    0.0000 C   0  0  0  0  0  0  0  0  0  0  0  0
    5.1513   -3.4658    0.0000 C   0  0  0  0  0  0  0  0  0  0  0  0
   10.5343   -3.8134    0.0000 C   0  0  0  0  0  0  0  0  0  0  0  0
    9.7021   -5.9624    0.0000 C   0  0  0  0  0  0  0  0  0  0  0  0
    4.1084   -4.2980    0.0000 N   0  0  0  0  0  0  0  0  0  0  0  0
    4.1716   -5.6253    0.0000 C   0  0  0  0  0  0  0  0  0  0  0  0
    2.8232   -3.9398    0.0000 C   0  0  0  0  0  0  0  0  0  0  0  0
    2.9180   -6.0888    0.0000 N   0  0  0  0  0  0  0  0  0  0  0  0
    5.2777   -6.3522    0.0000 O   0  0  0  0  0  0  0  0  0  0  0  0
    2.0963   -5.0459    0.0000 C   0  0  0  0  0  0  0  0  0  0  0  0
    2.3597   -2.6968    0.0000 O   0  0  0  0  0  0  0  0  0  0  0  0
    2.5704   -7.3740    0.0000 C   0  0  0  0  0  0  0  0  0  0  0  0
    1.2852   -7.7111    0.0000 C   0  0  0  0  0  0  0  0  0  0  0  0
    0.0000   -8.0482    0.0000 C   0  0  0  0  0  0  0  0  0  0  0  0
  1  2  1  0  0  0  0 
  1  3  1  0  0  0  0 
  1  4  1  1  0  0  0 
  2  3  1  0  0  0  0 
  2  5  1  0  0  0  0 
  2  6  1  0  0  0  0 
  3  7  1  6  0  0  0 
  4  8  2  0  0  0  0 
  4  9  1  0  0  0  0 
  7 10  2  0  0  0  0 
  9 11  1  0  0  0  0 
 10 12  1  0  0  0  0 
 10 13  1  0  0  0  0 
 11 14  1  0  0  0  0 
 14 15  1  0  0  0  0 
 14 16  1  0  0  0  0 
 17 15  1  0  0  0  0 
 15 18  2  0  0  0  0 
 16 19  1  0  0  0  0 
 16 20  2  0  0  0  0 
 17 19  1  0  0  0  0 
 17 21  1  0  0  0  0 
 21 22  1  0  0  0  0 
 22 23  3  0  0  0  0 
M  END
> <Name>
Imiprothrin

> <Source>
DSSTox2DMolFile

> <Tox>
-7.870

> <CAS>
72963-72-5

$$$$

  CDK

 22 22  0  0  0  0  0  0  0  0999 V2000
    8.0947   -2.0237    0.0000 C   0  0  0  0  0  0  0  0  0  0  0  0
    6.9058   -2.6940    0.0000 C   0  0  0  0  0  0  0  0  0  0  0  0
    8.0947   -0.7209    0.0000 C   0  0  0  0  0  0  0  0  0  0  0  0
    9.2204   -2.6940    0.0000 C   0  0  0  0  0  0  0  0  0  0  0  0
    5.7675   -2.0237    0.0000 C   0  0  0  0  0  0  0  0  0  0  0  0
    6.9058   -4.0094    0.0000 O   0  0  0  0  0  0  0  0  0  0  0  0
    6.9058   -0.0379    0.0000 C   0  0  0  0  0  0  0  0  0  0  0  0
    9.2204   -0.0000    0.0000 O   0  0  0  0  0  0  0  0  0  0  0  0
   10.3714   -2.0237    0.0000 N   0  0  0  0  0  0  0  0  0  0  0  0
    9.2204   -4.0474    0.0000 C   0  0  0  0  0  0  0  0  0  0  0  0
    5.7675   -0.7209    0.0000 C   0  0  0  0  0  0  0  0  0  0  0  0
   11.4971   -1.3660    0.0000 O   0  0  0  0  0  0  0  0  0  0  0  0
   10.3334   -4.7177    0.0000 C   0  0  0  0  0  0  0  0  0  0  0  0
    4.6039   -0.0000    0.0000 C   0  0  0  0  0  0  0  0  0  0  0  0
   12.6480   -2.0237    0.0000 C   0  0  0  0  0  0  0  0  0  0  0  0
   10.3334   -6.0458    0.0000 C   0  0  0  0  0  0  0  0  0  0  0  0
    3.4529   -0.6703    0.0000 C   0  0  0  0  0  0  0  0  0  0  0  0
   12.6354   -3.3391    0.0000 C   0  0  0  0  0  0  0  0  0  0  0  0
    2.3146   -0.0000    0.0000 S   0  0  0  0  0  0  0  0  0  0  0  0
    3.4529   -2.0237    0.0000 C   0  0  0  0  0  0  0  0  0  0  0  0
    1.1889   -0.6703    0.0000 C   0  0  0  0  0  0  0  0  0  0  0  0
    0.0000   -0.0000    0.0000 C   0  0  0  0  0  0  0  0  0  0  0  0
  1  2  2  0  0  0  0 
  1  3  1  0  0  0  0 
  1  4  1  0  0  0  0 
  2  5  1  0  0  0  0 
  2  6  1  0  0  0  0 
  3  7  1  0  0  0  0 
  3  8  2  0  0  0  0 
  4  9  2  0  0  0  0 
  4 10  1  0  0  0  0 
  5 11  1  0  0  0  0 
  7 11  1  0  0  0  0 
  9 12  1  0  0  0  0 
 10 13  1  0  0  0  0 
 11 14  1  0  0  0  0 
 12 15  1  0  0  0  0 
 13 16  1  0  0  0  0 
 14 17  1  0  0  0  0 
 15 18  1  0  0  0  0 
 19 17  1  0  0  0  0 
 17 20  1  0  0  0  0 
 19 21  1  0  0  0  0 
 21 22  1  0  0  0  0 
M  END
> <Name>
Sethoxydim

> <Source>
DSSTox2DMolFile

> <Tox>
-6.796

> <CAS>
74051-80-2

$$$$

  CDK

 20 22  0  0  0  0  0  0  0  0999 V2000
    3.9902   -2.3559    0.0000 C   0  0  0  0  0  0  0  0  0  0  0  0
    4.6481   -3.5020    0.0000 N   0  0  0  0  0  0  0  0  0  0  0  0
    4.6481   -1.1992    0.0000 N   0  0  0  0  0  0  0  0  0  0  0  0
    2.6636   -2.3559    0.0000 C   0  0  0  0  0  0  0  0  0  0  0  0
    5.9640   -3.5020    0.0000 N   0  0  0  0  0  0  0  0  0  0  0  0
    5.9746   -1.1992    0.0000 N   0  0  0  0  0  0  0  0  0  0  0  0
    2.0057   -1.2098    0.0000 C   0  0  0  0  0  0  0  0  0  0  0  0
    1.9845   -3.5232    0.0000 C   0  0  0  0  0  0  0  0  0  0  0  0
    6.6326   -2.3347    0.0000 C   0  0  0  0  0  0  0  0  0  0  0  0
    2.6636   -0.0424    0.0000 Cl  0  0  0  0  0  0  0  0  0  0  0  0
    0.6686   -1.2098    0.0000 C   0  0  0  0  0  0  0  0  0  0  0  0
    0.6686   -3.5232    0.0000 C   0  0  0  0  0  0  0  0  0  0  0  0
    7.9485   -2.3347    0.0000 C   0  0  0  0  0  0  0  0  0  0  0  0
    0.0000   -2.3665    0.0000 C   0  0  0  0  0  0  0  0  0  0  0  0
    8.6276   -1.1992    0.0000 C   0  0  0  0  0  0  0  0  0  0  0  0
    8.6276   -3.4914    0.0000 C   0  0  0  0  0  0  0  0  0  0  0  0
    7.9485   -0.0000    0.0000 Cl  0  0  0  0  0  0  0  0  0  0  0  0
    9.9435   -1.1992    0.0000 C   0  0  0  0  0  0  0  0  0  0  0  0
    9.9435   -3.4914    0.0000 C   0  0  0  0  0  0  0  0  0  0  0  0
   10.6121   -2.3347    0.0000 C   0  0  0  0  0  0  0  0  0  0  0  0
  1  2  1  0  0  0  0 
  1  3  2  0  0  0  0 
  1  4  1  0  0  0  0 
  2  5  2  0  0  0  0 
  3  6  1  0  0  0  0 
  4  7  1  0  0  0  0 
  4  8  2  0  0  0  0 
  9  5  1  0  0  0  0 
  9  6  2  0  0  0  0 
  7 10  1  0  0  0  0 
  7 11  2  0  0  0  0 
  8 12  1  0  0  0  0 
  9 13  1  0  0  0  0 
 11 14  1  0  0  0  0 
 12 14  2  0  0  0  0 
 13 15  2  0  0  0  0 
 13 16  1  0  0  0  0 
 15 17  1  0  0  0  0 
 15 18  1  0  0  0  0 
 16 19  2  0  0  0  0 
 18 20  2  0  0  0  0 
 19 20  1  0  0  0  0 
M  END
> <Name>
CLOFENTEZINE

> <Source>
DSSTox2DMolFile

> <Tox>
-9.011

> <CAS>
74115-24-5

$$$$

  CDK

 15 16  0  0  0  0  0  0  0  0999 V2000
    5.4076   -2.2383    0.0000 N   0  0  0  0  0  0  0  0  0  0  0  0
    4.6259   -3.3113    0.0000 C   0  0  0  0  0  0  0  0  0  0  0  0
    4.6259   -1.1511    0.0000 C   0  0  0  0  0  0  0  0  0  0  0  0
    3.3611   -2.8992    0.0000 C   0  0  0  0  0  0  0  0  0  0  0  0
    3.3611   -1.5704    0.0000 C   0  0  0  0  0  0  0  0  0  0  0  0
    2.2881   -3.6808    0.0000 C   0  0  0  0  0  0  0  0  0  0  0  0
    2.2881   -0.7816    0.0000 C   0  0  0  0  0  0  0  0  0  0  0  0
    2.4302   -4.9954    0.0000 C   0  0  0  0  0  0  0  0  0  0  0  0
    1.0730   -3.1337    0.0000 C   0  0  0  0  0  0  0  0  0  0  0  0
    1.2151   -0.0000    0.0000 N   0  0  0  0  0  0  0  0  0  0  0  0
    1.3572   -5.7771    0.0000 C   0  0  0  0  0  0  0  0  0  0  0  0
    3.6524   -5.5355    0.0000 Cl  0  0  0  0  0  0  0  0  0  0  0  0
    0.0000   -3.9224    0.0000 C   0  0  0  0  0  0  0  0  0  0  0  0
    0.1421   -5.2299    0.0000 C   0  0  0  0  0  0  0  0  0  0  0  0
    1.5064   -7.1059    0.0000 Cl  0  0  0  0  0  0  0  0  0  0  0  0
  1  2  1  0  0  0  0 
  1  3  1  0  0  0  0 
  2  4  2  0  0  0  0 
  3  5  2  0  0  0  0 
  4  5  1  0  0  0  0 
  4  6  1  0  0  0  0 
  5  7  1  0  0  0  0 
  6  8  2  0  0  0  0 
  6  9  1  0  0  0  0 
  7 10  3  0  0  0  0 
  8 11  1  0  0  0  0 
  8 12  1  0  0  0  0 
  9 13  2  0  0  0  0 
 11 14  2  0  0  0  0 
 11 15  1  0  0  0  0 
 13 14  1  0  0  0  0 
M  END
> <Name>
FENPICLONIL

> <Source>
DSSTox2DMolFile

> <Tox>
-7.081

> <CAS>
74738-17-3

$$$$

  CDK

 22 23  0  0  0  0  0  0  0  0999 V2000
   12.6536   -1.3379    0.0000 C   0  0  0  0  0  0  0  0  0  0  0  0
   12.6536   -0.0000    0.0000 O   0  0  0  0  0  0  0  0  0  0  0  0
   13.8142   -1.9988    0.0000 O   0  0  0  0  0  0  0  0  0  0  0  0
   11.5092   -1.9988    0.0000 N   0  0  0  0  0  0  0  0  0  0  0  0
   14.9748   -1.3379    0.0000 C   0  0  0  0  0  0  0  0  0  0  0  0
   10.3486   -1.3379    0.0000 C   0  0  0  0  0  0  0  0  0  0  0  0
   16.1193   -1.9988    0.0000 C   0  0  0  0  0  0  0  0  0  0  0  0
    9.2041   -1.9988    0.0000 C   0  0  0  0  0  0  0  0  0  0  0  0
    8.0596   -1.3379    0.0000 O   0  0  0  0  0  0  0  0  0  0  0  0
    6.9152   -1.9988    0.0000 C   0  0  0  0  0  0  0  0  0  0  0  0
    6.9152   -3.3367    0.0000 C   0  0  0  0  0  0  0  0  0  0  0  0
    5.7546   -1.3379    0.0000 C   0  0  0  0  0  0  0  0  0  0  0  0
    5.7546   -3.9976    0.0000 C   0  0  0  0  0  0  0  0  0  0  0  0
    4.5940   -1.9988    0.0000 C   0  0  0  0  0  0  0  0  0  0  0  0
    4.5940   -3.3367    0.0000 C   0  0  0  0  0  0  0  0  0  0  0  0
    3.4495   -3.9976    0.0000 O   0  0  0  0  0  0  0  0  0  0  0  0
    2.2889   -3.3367    0.0000 C   0  0  0  0  0  0  0  0  0  0  0  0
    1.1284   -3.9976    0.0000 C   0  0  0  0  0  0  0  0  0  0  0  0
    2.2889   -1.9988    0.0000 C   0  0  0  0  0  0  0  0  0  0  0  0
    0.0000   -3.3367    0.0000 C   0  0  0  0  0  0  0  0  0  0  0  0
    1.1284   -1.3379    0.0000 C   0  0  0  0  0  0  0  0  0  0  0  0
    0.0000   -1.9988    0.0000 C   0  0  0  0  0  0  0  0  0  0  0  0
  1  2  2  0  0  0  0 
  1  3  1  0  0  0  0 
  1  4  1  0  0  0  0 
  3  5  1  0  0  0  0 
  4  6  1  0  0  0  0 
  5  7  1  0  0  0  0 
  6  8  1  0  0  0  0 
  8  9  1  0  0  0  0 
  9 10  1  0  0  0  0 
 10 11  2  0  0  0  0 
 10 12  1  0  0  0  0 
 11 13  1  0  0  0  0 
 12 14  2  0  0  0  0 
 13 15  2  0  0  0  0 
 14 15  1  0  0  0  0 
 15 16  1  0  0  0  0 
 16 17  1  0  0  0  0 
 17 18  2  0  0  0  0 
 17 19  1  0  0  0  0 
 18 20  1  0  0  0  0 
 19 21  2  0  0  0  0 
 20 22  2  0  0  0  0 
 21 22  1  0  0  0  0 
M  END
> <Name>
FENOXYCARB

> <Source>
DSSTox2DMolFile

> <Tox>
-8.222

> <CAS>
79127-80-3

$$$$

  CDK

 25 26  0  0  0  0  0  0  0  0999 V2000
    1.7042   -5.3344    0.0000 S   0  0  0  0  0  0  0  0  0  0  0  0
    2.3695   -6.4666    0.0000 C   0  0  0  0  0  0  0  0  0  0  0  0
    2.5213   -4.3072    0.0000 C   0  0  0  0  0  0  0  0  0  0  0  0
    3.7236   -6.1398    0.0000 C   0  0  0  0  0  0  0  0  0  0  0  0
    3.7236   -4.7975    0.0000 C   0  0  0  0  0  0  0  0  0  0  0  0
    2.2061   -3.0232    0.0000 C   0  0  0  0  0  0  0  0  0  0  0  0
    4.8792   -4.1321    0.0000 S   0  0  0  0  0  0  0  0  0  0  0  0
    3.1633   -2.0777    0.0000 O   0  0  0  0  0  0  0  0  0  0  0  0
    0.9455   -2.6497    0.0000 O   0  0  0  0  0  0  0  0  0  0  0  0
    5.5562   -5.2644    0.0000 O   0  0  0  0  0  0  0  0  0  0  0  0
    4.1905   -2.9765    0.0000 O   0  0  0  0  0  0  0  0  0  0  0  0
    5.9881   -3.4434    0.0000 N   0  0  0  0  0  0  0  0  0  0  0  0
    0.0000   -3.5952    0.0000 C   0  0  0  0  0  0  0  0  0  0  0  0
    5.9881   -2.1011    0.0000 C   0  0  0  0  0  0  0  0  0  0  0  0
    4.8091   -1.4357    0.0000 O   0  0  0  0  0  0  0  0  0  0  0  0
    7.0736   -1.4241    0.0000 N   0  0  0  0  0  0  0  0  0  0  0  0
    8.2642   -2.0661    0.0000 C   0  0  0  0  0  0  0  0  0  0  0  0
    8.2642   -3.4318    0.0000 N   0  0  0  0  0  0  0  0  0  0  0  0
    9.3615   -1.3774    0.0000 N   0  0  0  0  0  0  0  0  0  0  0  0
    9.4665   -4.0271    0.0000 C   0  0  0  0  0  0  0  0  0  0  0  0
   10.5637   -2.0077    0.0000 C   0  0  0  0  0  0  0  0  0  0  0  0
   10.5637   -3.3617    0.0000 N   0  0  0  0  0  0  0  0  0  0  0  0
    9.4665   -5.3694    0.0000 C   0  0  0  0  0  0  0  0  0  0  0  0
   11.6726   -1.3307    0.0000 O   0  0  0  0  0  0  0  0  0  0  0  0
   11.6726   -0.0000    0.0000 C   0  0  0  0  0  0  0  0  0  0  0  0
  1  2  1  0  0  0  0 
  1  3  1  0  0  0  0 
  2  4  2  0  0  0  0 
  3  5  2  0  0  0  0 
  3  6  1  0  0  0  0 
  5  4  1  0  0  0  0 
  5  7  1  0  0  0  0 
  6  8  2  0  0  0  0 
  6  9  1  0  0  0  0 
  7 10  2  0  0  0  0 
  7 11  2  0  0  0  0 
  7 12  1  0  0  0  0 
  9 13  1  0  0  0  0 
 12 14  1  0  0  0  0 
 14 15  2  0  0  0  0 
 14 16  1  0  0  0  0 
 16 17  1  0  0  0  0 
 18 17  1  0  0  0  0 
 17 19  2  0  0  0  0 
 18 20  2  0  0  0  0 
 19 21  1  0  0  0  0 
 22 20  1  0  0  0  0 
 20 23  1  0  0  0  0 
 21 22  2  0  0  0  0 
 21 24  1  0  0  0  0 
 24 25  1  0  0  0  0 
M  END
> <Name>
HARMONY

> <Source>
DSSTox2DMolFile

> <Tox>
-9.893

> <CAS>
79277-27-3

$$$$

  CDK

 21 22  0  0  0  0  0  0  0  0999 V2000
    4.5821   -1.3115    0.0000 C   0  0  0  0  0  0  0  0  0  0  0  0
    4.5821   -0.0000    0.0000 O   0  0  0  0  0  0  0  0  0  0  0  0
    3.4466   -1.9832    0.0000 C   0  0  0  0  0  0  0  0  0  0  0  0
    5.7336   -1.9832    0.0000 O   0  0  0  0  0  0  0  0  0  0  0  0
    3.4466   -3.2946    0.0000 C   0  0  0  0  0  0  0  0  0  0  0  0
    2.2951   -1.3115    0.0000 C   0  0  0  0  0  0  0  0  0  0  0  0
    6.8932   -1.3115    0.0000 C   0  0  0  0  0  0  0  0  0  0  0  0
    2.2951   -3.9664    0.0000 C   0  0  0  0  0  0  0  0  0  0  0  0
    4.5821   -3.9664    0.0000 C   0  0  0  0  0  0  0  0  0  0  0  0
    1.1515   -1.9832    0.0000 C   0  0  0  0  0  0  0  0  0  0  0  0
    1.1515   -3.2946    0.0000 C   0  0  0  0  0  0  0  0  0  0  0  0
    4.7261   -5.2778    0.0000 N   0  0  0  0  0  0  0  0  0  0  0  0
    5.8056   -3.4306    0.0000 N   0  0  0  0  0  0  0  0  0  0  0  0
    0.0000   -3.9664    0.0000 C   0  0  0  0  0  0  0  0  0  0  0  0
    6.0295   -5.5577    0.0000 C   0  0  0  0  0  0  0  0  0  0  0  0
    6.6773   -4.3982    0.0000 C   0  0  0  0  0  0  0  0  0  0  0  0
    7.4609   -5.7656    0.0000 C   0  0  0  0  0  0  0  0  0  0  0  0
    5.8856   -6.8692    0.0000 C   0  0  0  0  0  0  0  0  0  0  0  0
    7.9967   -4.2702    0.0000 O   0  0  0  0  0  0  0  0  0  0  0  0
    4.6781   -7.4130    0.0000 C   0  0  0  0  0  0  0  0  0  0  0  0
    6.9571   -7.6529    0.0000 C   0  0  0  0  0  0  0  0  0  0  0  0
  1  2  2  0  0  0  0 
  1  3  1  0  0  0  0 
  1  4  1  0  0  0  0 
  3  5  2  0  0  0  0 
  3  6  1  0  0  0  0 
  4  7  1  0  0  0  0 
  5  8  1  0  0  0  0 
  5  9  1  0  0  0  0 
  6 10  2  0  0  0  0 
  8 11  2  0  0  0  0 
 12  9  1  0  0  0  0 
 13  9  2  0  0  0  0 
 10 11  1  0  0  0  0 
 11 14  1  0  0  0  0 
 12 15  1  0  0  0  0 
 13 16  1  0  0  0  0 
 15 16  1  0  0  0  0 
 15 17  1  0  0  0  0 
 15 18  1  0  0  0  0 
 16 19  2  0  0  0  0 
 18 20  1  0  0  0  0 
 18 21  1  0  0  0  0 
M  END
> <Name>
Imazamethabenz (isomer mix)

> <Source>
DSSTox2DMolFile

> <Tox>
-7.947

> <CAS>
81405-85-8

$$$$

  CDK

 16 17  0  0  0  0  0  0  0  0999 V2000
    4.6212   -1.9866    0.0000 N   0  0  0  0  0  0  0  0  0  0  0  0
    4.6212   -3.3182    0.0000 C   0  0  0  0  0  0  0  0  0  0  0  0
    5.8887   -1.5879    0.0000 O   0  0  0  0  0  0  0  0  0  0  0  0
    3.4606   -1.3315    0.0000 C   0  0  0  0  0  0  0  0  0  0  0  0
    5.8887   -3.7169    0.0000 C   0  0  0  0  0  0  0  0  0  0  0  0
    3.5247   -4.1014    0.0000 O   0  0  0  0  0  0  0  0  0  0  0  0
    6.6577   -2.6773    0.0000 C   0  0  0  0  0  0  0  0  0  0  0  0
    2.2928   -1.9866    0.0000 C   0  0  0  0  0  0  0  0  0  0  0  0
    5.3902   -4.9701    0.0000 C   0  0  0  0  0  0  0  0  0  0  0  0
    7.1205   -4.2154    0.0000 C   0  0  0  0  0  0  0  0  0  0  0  0
    1.1535   -1.3315    0.0000 C   0  0  0  0  0  0  0  0  0  0  0  0
    2.2928   -3.3182    0.0000 C   0  0  0  0  0  0  0  0  0  0  0  0
    1.1535   -0.0000    0.0000 Cl  0  0  0  0  0  0  0  0  0  0  0  0
    0.0000   -1.9866    0.0000 C   0  0  0  0  0  0  0  0  0  0  0  0
    1.1535   -3.9946    0.0000 C   0  0  0  0  0  0  0  0  0  0  0  0
    0.0000   -3.3182    0.0000 C   0  0  0  0  0  0  0  0  0  0  0  0
  1  2  1  0  0  0  0 
  1  3  1  0  0  0  0 
  1  4  1  0  0  0  0 
  2  5  1  0  0  0  0 
  2  6  2  0  0  0  0 
  3  7  1  0  0  0  0 
  4  8  1  0  0  0  0 
  5  9  1  0  0  0  0 
  5 10  1  0  0  0  0 
  5  7  1  0  0  0  0 
  8 11  2  0  0  0  0 
  8 12  1  0  0  0  0 
 11 13  1  0  0  0  0 
 11 14  1  0  0  0  0 
 12 15  2  0  0  0  0 
 14 16  2  0  0  0  0 
 15 16  1  0  0  0  0 
M  END
> <Name>
CLOMAZONE

> <Source>
DSSTox2DMolFile

> <Tox>
-3.842

> <CAS>
81777-89-1

$$$$

  CDK

 24 25  0  0  0  0  0  0  0  0999 V2000
    3.4613   -2.6484    0.0000 C   0  0  0  0  0  0  0  0  0  0  0  0
    2.3076   -1.9754    0.0000 C   0  0  0  0  0  0  0  0  0  0  0  0
    4.6151   -1.9841    0.0000 N   0  0  0  0  0  0  0  0  0  0  0  0
    3.4613   -3.9858    0.0000 O   0  0  0  0  0  0  0  0  0  0  0  0
    1.1538   -2.6484    0.0000 C   0  0  0  0  0  0  0  0  0  0  0  0
    2.3076   -0.6556    0.0000 C   0  0  0  0  0  0  0  0  0  0  0  0
    5.7601   -2.6572    0.0000 C   0  0  0  0  0  0  0  0  0  0  0  0
    1.1538   -3.9770    0.0000 O   0  0  0  0  0  0  0  0  0  0  0  0
    0.0000   -1.9754    0.0000 C   0  0  0  0  0  0  0  0  0  0  0  0
    3.4613   -0.0000    0.0000 O   0  0  0  0  0  0  0  0  0  0  0  0
    1.1538   -0.0000    0.0000 C   0  0  0  0  0  0  0  0  0  0  0  0
    5.7601   -3.9858    0.0000 C   0  0  0  0  0  0  0  0  0  0  0  0
    7.0450   -2.2639    0.0000 O   0  0  0  0  0  0  0  0  0  0  0  0
    2.3076   -4.6326    0.0000 C   0  0  0  0  0  0  0  0  0  0  0  0
    0.0000   -0.6730    0.0000 C   0  0  0  0  0  0  0  0  0  0  0  0
    4.6151   -0.6556    0.0000 C   0  0  0  0  0  0  0  0  0  0  0  0
    7.0450   -4.3966    0.0000 C   0  0  0  0  0  0  0  0  0  0  0  0
    7.8055   -3.3564    0.0000 N   0  0  0  0  0  0  0  0  0  0  0  0
    7.4908   -5.6640    0.0000 C   0  0  0  0  0  0  0  0  0  0  0  0
    7.9191   -6.9139    0.0000 C   0  0  0  0  0  0  0  0  0  0  0  0
    6.2059   -6.0923    0.0000 C   0  0  0  0  0  0  0  0  0  0  0  0
    8.7407   -5.2182    0.0000 C   0  0  0  0  0  0  0  0  0  0  0  0
    7.0450   -7.9279    0.0000 C   0  0  0  0  0  0  0  0  0  0  0  0
    5.2095   -5.2182    0.0000 C   0  0  0  0  0  0  0  0  0  0  0  0
  1  2  1  0  0  0  0 
  1  3  1  0  0  0  0 
  1  4  2  0  0  0  0 
  2  5  2  0  0  0  0 
  2  6  1  0  0  0  0 
  7  3  1  0  0  0  0 
  5  8  1  0  0  0  0 
  5  9  1  0  0  0  0 
  6 10  1  0  0  0  0 
  6 11  2  0  0  0  0 
  7 12  2  0  0  0  0 
  7 13  1  0  0  0  0 
  8 14  1  0  0  0  0 
 15  9  2  0  0  0  0 
 10 16  1  0  0  0  0 
 15 11  1  0  0  0  0 
 12 17  1  0  0  0  0 
 18 13  1  0  0  0  0 
 18 17  2  0  0  0  0 
 17 19  1  0  0  0  0 
 19 20  1  0  0  0  0 
 19 21  1  0  0  0  0 
 19 22  1  0  0  0  0 
 20 23  1  0  0  0  0 
 21 24  1  0  0  0  0 
M  END
> <Name>
Isoxaben

> <Source>
DSSTox2DMolFile

> <Tox>
-8.384

> <CAS>
82558-50-7

$$$$

  CDK

 26 26  0  0  0  0  0  0  0  0999 V2000
    9.0792    0.0000    0.0000 C   0  0  0  0  0  0  0  0  0  0  0  0
    8.3711    1.2494    0.0000 C   0  0  0  0  0  0  0  0  0  0  0  0
    9.0792    2.4572    0.0000 O   0  0  0  0  0  0  0  0  0  0  0  0
    8.3711    3.6650    0.0000 C   0  0  0  0  0  0  0  0  0  0  0  0
    9.0792    4.8728    0.0000 O   0  0  0  0  0  0  0  0  0  0  0  0
    6.9551    3.6650    0.0000 C   0  0  0  0  0  0  0  0  0  0  0  0
    6.2888    4.8728    0.0000 C   0  0  0  0  0  0  0  0  0  0  0  0
    4.8728    4.8728    0.0000 N   0  0  0  0  0  0  0  0  0  0  0  0
    4.1647    3.6650    0.0000 C   0  0  0  0  0  0  0  0  0  0  0  0
    4.1647    6.0805    0.0000 S   0  0  0  0  0  0  0  0  0  0  0  0
    2.7904    3.6650    0.0000 C   0  0  0  0  0  0  0  0  0  0  0  0
    4.8728    7.2883    0.0000 N   0  0  0  0  0  0  0  0  0  0  0  0
    2.0824    2.4572    0.0000 C   0  0  0  0  0  0  0  0  0  0  0  0
    2.0824    4.8728    0.0000 C   0  0  0  0  0  0  0  0  0  0  0  0
    4.1647    8.4961    0.0000 C   0  0  0  0  0  0  0  0  0  0  0  0
    6.2888    7.2883    0.0000 C   0  0  0  0  0  0  0  0  0  0  0  0
    0.6664    2.4572    0.0000 C   0  0  0  0  0  0  0  0  0  0  0  0
    0.6664    4.8728    0.0000 C   0  0  0  0  0  0  0  0  0  0  0  0
    6.9551    6.0805    0.0000 O   0  0  0  0  0  0  0  0  0  0  0  0
    6.9551    8.4961    0.0000 O   0  0  0  0  0  0  0  0  0  0  0  0
    0.0000    3.6650    0.0000 C   0  0  0  0  0  0  0  0  0  0  0  0
    6.2888    9.7039    0.0000 N   0  0  0  0  0  0  0  0  0  0  0  0
    6.9551   10.9116    0.0000 C   0  0  0  0  0  0  0  0  0  0  0  0
    8.3711   10.9116    0.0000 C   0  0  0  0  0  0  0  0  0  0  0  0
    6.2888   12.1194    0.0000 S   0  0  0  0  0  0  0  0  0  0  0  0
    4.8728   12.1194    0.0000 C   0  0  0  0  0  0  0  0  0  0  0  0
  1  2  1  0  0  0  0 
  2  3  1  0  0  0  0 
  3  4  1  0  0  0  0 
  4  5  2  0  0  0  0 
  4  6  1  0  0  0  0 
  6  7  1  0  0  0  0 
  7  8  1  0  0  0  0 
  8  9  1  0  0  0  0 
  8 10  1  0  0  0  0 
  9 11  1  0  0  0  0 
 10 12  1  0  0  0  0 
 11 13  1  0  0  0  0 
 11 14  2  0  0  0  0 
 12 15  1  0  0  0  0 
 12 16  1  0  0  0  0 
 13 17  2  0  0  0  0 
 18 14  1  0  0  0  0 
 16 19  2  0  0  0  0 
 16 20  1  0  0  0  0 
 17 21  1  0  0  0  0 
 21 18  2  0  0  0  0 
 20 22  1  0  0  0  0 
 22 23  2  0  0  0  0 
 23 24  1  0  0  0  0 
 23 25  1  0  0  0  0 
 25 26  1  0  0  0  0 
M  END
> <Name>
ALANYCARB

> <Source>
IndexNet2DMolFile

> <Tox>
-7.456

> <CAS>
83130-01-2

$$$$

  CDK

 28 30  0  0  0  0  0  0  0  0999 V2000
    0.4394   -2.0214   -0.2144 C   0  0  0  0  0  0  0  0  0  0  0  0
   -0.7864   -2.6234    0.1479 C   0  0  0  0  0  0  0  0  0  0  0  0
    1.5869   -2.7259   -0.3933 N   0  0  0  0  0  0  0  0  0  0  0  0
    0.4750   -0.6584   -0.3945 O   0  0  0  0  0  0  0  0  0  0  0  0
   -0.7745   -4.0121    0.3251 C   0  0  0  0  0  0  0  0  0  0  0  0
   -2.0701   -1.8932    0.3629 C   0  0  0  0  0  0  0  0  0  0  0  0
    1.5688   -4.0662   -0.2184 C   0  0  0  0  0  0  0  0  0  0  0  0
    1.6974   -0.0835   -0.7610 C   0  0  0  0  0  0  0  0  0  0  0  0
    0.3997   -4.7352    0.1413 C   0  0  0  0  0  0  0  0  0  0  0  0
   -3.0385   -2.4109    0.9141 O   0  0  0  0  0  0  0  0  0  0  0  0
   -2.1652   -0.5744   -0.1324 N   0  0  0  0  0  0  0  0  0  0  0  0
    2.5689    0.3543    0.2406 C   0  0  0  0  0  0  0  0  0  0  0  0
    1.9485    0.1577   -2.1145 C   0  0  0  0  0  0  0  0  0  0  0  0
   -3.2976    0.2858    0.0190 C   0  0  0  0  0  0  0  0  0  0  0  0
    3.7112    1.0502   -0.1436 C   0  0  0  0  0  0  0  0  0  0  0  0
    3.0975    0.8576   -2.4678 C   0  0  0  0  0  0  0  0  0  0  0  0
   -3.2505    1.6028   -0.4904 C   0  0  0  0  0  0  0  0  0  0  0  0
   -4.4718   -0.1537    0.6469 C   0  0  0  0  0  0  0  0  0  0  0  0
    3.9785    1.3036   -1.4887 C   0  0  0  0  0  0  0  0  0  0  0  0
    4.7089    1.5642    0.8938 C   0  0  0  0  0  0  0  0  0  0  0  0
   -4.3465    2.4628   -0.3755 C   0  0  0  0  0  0  0  0  0  0  0  0
   -2.1395    2.0549   -1.0982 F   0  0  0  0  0  0  0  0  0  0  0  0
   -5.5680    0.6849    0.7688 C   0  0  0  0  0  0  0  0  0  0  0  0
    5.9744    1.1281    0.6916 F   0  0  0  0  0  0  0  0  0  0  0  0
    4.8186    2.9134    0.9137 F   0  0  0  0  0  0  0  0  0  0  0  0
    4.4414    1.2307    2.1763 F   0  0  0  0  0  0  0  0  0  0  0  0
   -5.4995    1.9879    0.2574 C   0  0  0  0  0  0  0  0  0  0  0  0
   -6.5621    2.8009    0.3758 F   0  0  0  0  0  0  0  0  0  0  0  0
  1  2  1  0  0  0  0 
  1  3  2  0  0  0  0 
  1  4  1  0  0  0  0 
  2  5  2  0  0  0  0 
  2  6  1  0  0  0  0 
  7  3  1  0  0  0  0 
  4  8  1  0  0  0  0 
  5  9  1  0  0  0  0 
  6 10  2  0  0  0  0 
  6 11  1  0  0  0  0 
  9  7  2  0  0  0  0 
  8 12  1  0  0  0  0 
  8 13  2  0  0  0  0 
 11 14  1  0  0  0  0 
 12 15  2  0  0  0  0 
 16 13  1  0  0  0  0 
 14 17  1  0  0  0  0 
 14 18  2  0  0  0  0 
 15 19  1  0  0  0  0 
 15 20  1  0  0  0  0 
 19 16  2  0  0  0  0 
 17 21  2  0  0  0  0 
 17 22  1  0  0  0  0 
 23 18  1  0  0  0  0 
 20 24  1  0  0  0  0 
 20 25  1  0  0  0  0 
 20 26  1  0  0  0  0 
 21 27  1  0  0  0  0 
 27 23  2  0  0  0  0 
 27 28  1  0  0  0  0 
M  END
> <Name>
DIFLUFENICAN

> <Source>
DougDB3DMolFile

> <Tox>
-7.498

> <CAS>
83164-33-4

$$$$

  CDK

 21 22  0  0  0  0  0  0  0  0999 V2000
    2.2243   -0.4145    0.0000 C   0  0  0  0  0  0  0  0  0  0  0  0
    2.9283    0.0155    0.0000 C   0  0  0  0  0  0  0  0  0  0  0  0
    1.4992   -0.0201    0.0000 C   0  0  0  0  0  0  0  0  0  0  0  0
    3.6048   -0.4583    0.0000 Cl  0  0  0  0  0  0  0  0  0  0  0  0
    2.9087    0.8420    0.0000 C   0  0  0  0  0  0  0  0  0  0  0  0
    1.4791    0.8030    0.0000 C   0  0  0  0  0  0  0  0  0  0  0  0
    0.6918   -0.1894    0.0000 N   0  0  0  0  0  0  0  0  0  0  0  0
    2.1814    1.2343    0.0000 C   0  0  0  0  0  0  0  0  0  0  0  0
   -0.1259   -0.0659    0.0000 C   0  0  0  0  0  0  0  0  0  0  0  0
    0.8251   -1.0100    0.0000 C   0  0  0  0  0  0  0  0  0  0  0  0
    2.1301    2.0575    0.0000 Cl  0  0  0  0  0  0  0  0  0  0  0  0
   -0.3372    0.7388    0.0000 O   0  0  0  0  0  0  0  0  0  0  0  0
   -0.4930   -0.8072    0.0000 C   0  0  0  0  0  0  0  0  0  0  0  0
    0.0970   -1.3813    0.0000 O   0  0  0  0  0  0  0  0  0  0  0  0
    1.2230   -1.7366    0.0000 O   0  0  0  0  0  0  0  0  0  0  0  0
   -0.6190   -1.6285    0.0000 C   0  0  0  0  0  0  0  0  0  0  0  0
   -1.1967   -0.3772    0.0000 C   0  0  0  0  0  0  0  0  0  0  0  0
   -1.9381   -0.7498    0.0000 O   0  0  0  0  0  0  0  0  0  0  0  0
   -1.5218    0.3693    0.0000 O   0  0  0  0  0  0  0  0  0  0  0  0
   -2.2294    0.7865    0.0000 C   0  0  0  0  0  0  0  0  0  0  0  0
   -2.9955    1.1043    0.0000 C   0  0  0  0  0  0  0  0  0  0  0  0
  1  2  1  0  0  0  0 
  1  3  2  0  0  0  0 
  2  4  1  0  0  0  0 
  2  5  2  0  0  0  0 
  6  3  1  0  0  0  0 
  3  7  1  0  0  0  0 
  5  8  1  0  0  0  0 
  8  6  2  0  0  0  0 
  7  9  1  0  0  0  0 
  7 10  1  0  0  0  0 
  8 11  1  0  0  0  0 
  9 12  2  0  0  0  0 
  9 13  1  0  0  0  0 
 14 10  1  0  0  0  0 
 10 15  2  0  0  0  0 
 13 16  1  0  0  0  0 
 13 17  1  0  0  0  0 
 13 14  1  0  0  0  0 
 17 18  2  0  0  0  0 
 17 19  1  0  0  0  0 
 19 20  1  0  0  0  0 
 20 21  1  0  0  0  0 
M  END
> <Name>
Chlozolinate

> <Source>
Smiles

> <Tox>
-7.013

> <CAS>
84332-86-5

$$$$

  CDK

 22 24  0  0  0  0  0  0  0  0999 V2000
    7.3097   -2.1448    0.0000 N   0  0  0  0  0  0  0  0  0  0  0  0
    6.6444   -1.0067    0.0000 N   0  0  0  0  0  0  0  0  0  0  0  0
    6.6444   -3.2916    0.0000 C   0  0  0  0  0  0  0  0  0  0  0  0
    8.6141   -1.8646    0.0000 C   0  0  0  0  0  0  0  0  0  0  0  0
    7.5373   -0.0000    0.0000 C   0  0  0  0  0  0  0  0  0  0  0  0
    5.3138   -3.2916    0.0000 Si  0  0  0  0  0  0  0  0  0  0  0  0
    8.7542   -0.5428    0.0000 N   0  0  0  0  0  0  0  0  0  0  0  0
    5.3138   -4.6222    0.0000 C   0  0  0  0  0  0  0  0  0  0  0  0
    3.9831   -3.2916    0.0000 C   0  0  0  0  0  0  0  0  0  0  0  0
    5.3138   -1.9609    0.0000 C   0  0  0  0  0  0  0  0  0  0  0  0
    6.4606   -5.2788    0.0000 C   0  0  0  0  0  0  0  0  0  0  0  0
    4.1582   -5.2788    0.0000 C   0  0  0  0  0  0  0  0  0  0  0  0
    3.3266   -2.1448    0.0000 C   0  0  0  0  0  0  0  0  0  0  0  0
    3.3266   -4.4471    0.0000 C   0  0  0  0  0  0  0  0  0  0  0  0
    6.4606   -6.6181    0.0000 C   0  0  0  0  0  0  0  0  0  0  0  0
    4.1582   -6.6181    0.0000 C   0  0  0  0  0  0  0  0  0  0  0  0
    1.9959   -2.1448    0.0000 C   0  0  0  0  0  0  0  0  0  0  0  0
    1.9959   -4.4471    0.0000 C   0  0  0  0  0  0  0  0  0  0  0  0
    5.3138   -7.2747    0.0000 C   0  0  0  0  0  0  0  0  0  0  0  0
    1.3306   -3.2916    0.0000 C   0  0  0  0  0  0  0  0  0  0  0  0
    5.3138   -8.6053    0.0000 F   0  0  0  0  0  0  0  0  0  0  0  0
    0.0000   -3.2916    0.0000 F   0  0  0  0  0  0  0  0  0  0  0  0
  1  2  1  0  0  0  0 
  1  3  1  0  0  0  0 
  1  4  1  0  0  0  0 
  2  5  2  0  0  0  0 
  6  3  1  0  0  0  0 
  7  4  2  0  0  0  0 
  7  5  1  0  0  0  0 
  6  8  1  0  0  0  0 
  6  9  1  0  0  0  0 
  6 10  1  0  0  0  0 
  8 11  2  0  0  0  0 
  8 12  1  0  0  0  0 
  9 13  2  0  0  0  0 
  9 14  1  0  0  0  0 
 11 15  1  0  0  0  0 
 12 16  2  0  0  0  0 
 13 17  1  0  0  0  0 
 14 18  2  0  0  0  0 
 19 15  2  0  0  0  0 
 19 16  1  0  0  0  0 
 20 17  2  0  0  0  0 
 20 18  1  0  0  0  0 
 19 21  1  0  0  0  0 
 20 22  1  0  0  0  0 
M  END
> <Name>
Flusilazole

> <Source>
DSSTox2DMolFile

> <Tox>
-6.533

> <CAS>
85509-19-9

$$$$

  CDK

 18 18  0  0  0  0  0  0  0  0999 V2000
    4.8728    4.8311    0.0000 C   0  0  0  0  0  0  0  0  0  0  0  0
    6.2888    4.8311    0.0000 C   0  0  0  0  0  0  0  0  0  0  0  0
    6.9551    3.6233    0.0000 N   0  0  0  0  0  0  0  0  0  0  0  0
    8.3711    3.6233    0.0000 C   0  0  0  0  0  0  0  0  0  0  0  0
    6.2888    2.4156    0.0000 C   0  0  0  0  0  0  0  0  0  0  0  0
    9.0792    2.4156    0.0000 C   0  0  0  0  0  0  0  0  0  0  0  0
    9.0792    4.8311    0.0000 C   0  0  0  0  0  0  0  0  0  0  0  0
    6.9551    1.2078    0.0000 O   0  0  0  0  0  0  0  0  0  0  0  0
    4.8728    2.4156    0.0000 S   0  0  0  0  0  0  0  0  0  0  0  0
    8.3711    6.0389    0.0000 C   0  0  0  0  0  0  0  0  0  0  0  0
   10.4535    4.8311    0.0000 C   0  0  0  0  0  0  0  0  0  0  0  0
    4.1647    1.2078    0.0000 C   0  0  0  0  0  0  0  0  0  0  0  0
    2.7904    1.2078    0.0000 C   0  0  0  0  0  0  0  0  0  0  0  0
    2.0824    0.0000    0.0000 C   0  0  0  0  0  0  0  0  0  0  0  0
    2.0824    2.4156    0.0000 C   0  0  0  0  0  0  0  0  0  0  0  0
    0.6664    0.0000    0.0000 C   0  0  0  0  0  0  0  0  0  0  0  0
    0.6664    2.4156    0.0000 C   0  0  0  0  0  0  0  0  0  0  0  0
    0.0000    1.2078    0.0000 C   0  0  0  0  0  0  0  0  0  0  0  0
  1  2  1  0  0  0  0 
  2  3  1  0  0  0  0 
  3  4  1  0  0  0  0 
  3  5  1  0  0  0  0 
  4  6  1  0  0  0  0 
  4  7  1  0  0  0  0 
  5  8  2  0  0  0  0 
  5  9  1  0  0  0  0 
  7 10  1  0  0  0  0 
  7 11  1  0  0  0  0 
  9 12  1  0  0  0  0 
 12 13  1  0  0  0  0 
 13 14  1  0  0  0  0 
 13 15  2  0  0  0  0 
 14 16  2  0  0  0  0 
 17 15  1  0  0  0  0 
 16 18  1  0  0  0  0 
 18 17  2  0  0  0  0 
M  END
> <Name>
ESPROCARB

> <Source>
IndexNet2DMolFile

> <Tox>
-5.120

> <CAS>
85785-20-2

$$$$

  CDK

 29 30  0  0  0  0  0  0  0  0999 V2000
   11.5330   -5.9915    0.0000 Cl  0  0  0  0  0  0  0  0  0  0  0  0
   10.3759   -5.3229    0.0000 C   0  0  0  0  0  0  0  0  0  0  0  0
    9.2187   -5.9915    0.0000 C   0  0  0  0  0  0  0  0  0  0  0  0
   10.3759   -3.9986    0.0000 C   0  0  0  0  0  0  0  0  0  0  0  0
    8.0615   -5.3229    0.0000 C   0  0  0  0  0  0  0  0  0  0  0  0
    9.2187   -3.3300    0.0000 C   0  0  0  0  0  0  0  0  0  0  0  0
   11.5330   -3.3300    0.0000 O   0  0  0  0  0  0  0  0  0  0  0  0
    8.0615   -3.9986    0.0000 C   0  0  0  0  0  0  0  0  0  0  0  0
    6.9044   -5.9915    0.0000 N   0  0  0  0  0  0  0  0  0  0  0  0
    9.2187   -2.0057    0.0000 Cl  0  0  0  0  0  0  0  0  0  0  0  0
   11.5330   -2.0057    0.0000 C   0  0  0  0  0  0  0  0  0  0  0  0
    5.7601   -5.3229    0.0000 C   0  0  0  0  0  0  0  0  0  0  0  0
   12.8573   -2.0057    0.0000 F   0  0  0  0  0  0  0  0  0  0  0  0
   10.1959   -2.0057    0.0000 F   0  0  0  0  0  0  0  0  0  0  0  0
   11.5330   -0.6686    0.0000 C   0  0  0  0  0  0  0  0  0  0  0  0
    5.7601   -3.9986    0.0000 O   0  0  0  0  0  0  0  0  0  0  0  0
    4.6029   -5.9787    0.0000 N   0  0  0  0  0  0  0  0  0  0  0  0
   12.6773   -0.0000    0.0000 F   0  0  0  0  0  0  0  0  0  0  0  0
   10.3759   -0.0000    0.0000 F   0  0  0  0  0  0  0  0  0  0  0  0
    3.4458   -5.3229    0.0000 C   0  0  0  0  0  0  0  0  0  0  0  0
    3.4458   -3.9986    0.0000 O   0  0  0  0  0  0  0  0  0  0  0  0
    2.2886   -5.9787    0.0000 C   0  0  0  0  0  0  0  0  0  0  0  0
    2.2886   -7.3158    0.0000 C   0  0  0  0  0  0  0  0  0  0  0  0
    1.1572   -5.3229    0.0000 C   0  0  0  0  0  0  0  0  0  0  0  0
    1.1572   -7.9844    0.0000 C   0  0  0  0  0  0  0  0  0  0  0  0
    3.4458   -7.9844    0.0000 F   0  0  0  0  0  0  0  0  0  0  0  0
    0.0000   -5.9787    0.0000 C   0  0  0  0  0  0  0  0  0  0  0  0
    1.1572   -3.9986    0.0000 F   0  0  0  0  0  0  0  0  0  0  0  0
    0.0000   -7.3158    0.0000 C   0  0  0  0  0  0  0  0  0  0  0  0
  1  2  1  0  0  0  0 
  2  3  1  0  0  0  0 
  2  4  2  0  0  0  0 
  3  5  2  0  0  0  0 
  6  4  1  0  0  0  0 
  4  7  1  0  0  0  0 
  5  8  1  0  0  0  0 
  5  9  1  0  0  0  0 
  8  6  2  0  0  0  0 
  6 10  1  0  0  0  0 
  7 11  1  0  0  0  0 
  9 12  1  0  0  0  0 
 11 13  1  0  0  0  0 
 11 14  1  0  0  0  0 
 11 15  1  0  0  0  0 
 12 16  2  0  0  0  0 
 12 17  1  0  0  0  0 
 15 18  1  0  0  0  0 
 15 19  1  0  0  0  0 
 17 20  1  0  0  0  0 
 20 21  2  0  0  0  0 
 20 22  1  0  0  0  0 
 22 23  1  0  0  0  0 
 22 24  2  0  0  0  0 
 23 25  2  0  0  0  0 
 23 26  1  0  0  0  0 
 27 24  1  0  0  0  0 
 24 28  1  0  0  0  0 
 25 29  1  0  0  0  0 
 29 27  2  0  0  0  0 
M  END
> <Name>
HEXAFLUMURON

> <Source>
DSSTox2DMolFile

> <Tox>
-6.354

> <CAS>
86479-06-3

$$$$

  CDK

 17 17  0  0  0  0  0  0  0  0999 V2000
    2.2408   -4.3221    0.0000 C   0  0  0  0  0  0  0  0  0  0  0  0
    2.5334   -5.6253    0.0000 O   0  0  0  0  0  0  0  0  0  0  0  0
    3.2382   -3.4311    0.0000 N   0  0  0  0  0  0  0  0  0  0  0  0
    0.9775   -3.9098    0.0000 C   0  0  0  0  0  0  0  0  0  0  0  0
    4.5016   -3.8433    0.0000 C   0  0  0  0  0  0  0  0  0  0  0  0
    2.9656   -2.1278    0.0000 C   0  0  0  0  0  0  0  0  0  0  0  0
    0.0000   -4.7875    0.0000 Cl  0  0  0  0  0  0  0  0  0  0  0  0
    5.5788   -3.0587    0.0000 C   0  0  0  0  0  0  0  0  0  0  0  0
    4.9205   -5.1133    0.0000 C   0  0  0  0  0  0  0  0  0  0  0  0
    1.6956   -1.7155    0.0000 C   0  0  0  0  0  0  0  0  0  0  0  0
    3.9431   -1.2301    0.0000 C   0  0  0  0  0  0  0  0  0  0  0  0
    6.6493   -3.8433    0.0000 S   0  0  0  0  0  0  0  0  0  0  0  0
    5.5788   -1.7288    0.0000 C   0  0  0  0  0  0  0  0  0  0  0  0
    6.2504   -5.1133    0.0000 C   0  0  0  0  0  0  0  0  0  0  0  0
    4.1359   -6.1839    0.0000 C   0  0  0  0  0  0  0  0  0  0  0  0
    1.4230   -0.4189    0.0000 O   0  0  0  0  0  0  0  0  0  0  0  0
    0.1596   -0.0000    0.0000 C   0  0  0  0  0  0  0  0  0  0  0  0
  1  2  2  0  0  0  0 
  1  3  1  0  0  0  0 
  1  4  1  0  0  0  0 
  3  5  1  0  0  0  0 
  3  6  1  0  0  0  0 
  4  7  1  0  0  0  0 
  8  5  2  0  0  0  0 
  5  9  1  0  0  0  0 
  6 10  1  0  0  0  0 
  6 11  1  0  0  0  0 
 12  8  1  0  0  0  0 
  8 13  1  0  0  0  0 
 14  9  2  0  0  0  0 
  9 15  1  0  0  0  0 
 10 16  1  0  0  0  0 
 12 14  1  0  0  0  0 
 16 17  1  0  0  0  0 
M  END
> <Name>
DIMETHENAMID

> <Source>
DSSTox2DMolFile

> <Tox>
-3.561

> <CAS>
87674-68-8

$$$$

  CDK

 16 17  0  0  0  0  0  0  0  0999 V2000
   -2.6776   -2.1630   -0.0017 Cl  0  0  0  0  0  0  0  0  0  0  0  0
   -1.7195   -0.6986    0.0008 C   0  0  0  0  0  0  0  0  0  0  0  0
   -0.3167   -0.6327    0.0004 C   0  0  0  0  0  0  0  0  0  0  0  0
   -2.4867    0.4666    0.0007 C   0  0  0  0  0  0  0  0  0  0  0  0
    0.3168    0.6328   -0.0002 C   0  0  0  0  0  0  0  0  0  0  0  0
    0.4713   -1.7953    0.0005 C   0  0  0  0  0  0  0  0  0  0  0  0
   -4.2249    0.4958   -0.0006 Cl  0  0  0  0  0  0  0  0  0  0  0  0
   -1.8638    1.7111    0.0001 C   0  0  0  0  0  0  0  0  0  0  0  0
    1.7196    0.6985   -0.0006 C   0  0  0  0  0  0  0  0  0  0  0  0
   -0.4713    1.7953   -0.0002 C   0  0  0  0  0  0  0  0  0  0  0  0
   -0.0284   -3.4625    0.0006 Cl  0  0  0  0  0  0  0  0  0  0  0  0
    1.8640   -1.7113    0.0000 C   0  0  0  0  0  0  0  0  0  0  0  0
    2.6774    2.1631   -0.0027 Cl  0  0  0  0  0  0  0  0  0  0  0  0
    2.4869   -0.4667   -0.0005 C   0  0  0  0  0  0  0  0  0  0  0  0
    0.0280    3.4628    0.0021 Cl  0  0  0  0  0  0  0  0  0  0  0  0
    4.2249   -0.4959    0.0012 Cl  0  0  0  0  0  0  0  0  0  0  0  0
  1  2  1  0  0  0  0 
  3  2  1  0  0  0  0 
  2  4  2  0  0  0  0 
  3  5  2  0  0  0  0 
  3  6  1  0  0  0  0 
  7  4  1  0  0  0  0 
  4  8  1  0  0  0  0 
  5  9  1  0  0  0  0 
  5 10  1  0  0  0  0 
 11  6  1  0  0  0  0 
  6 12  2  0  0  0  0 
 10  8  2  0  0  0  0 
 13  9  1  0  0  0  0 
  9 14  2  0  0  0  0 
 15 10  1  0  0  0  0 
 14 12  1  0  0  0  0 
 16 14  1  0  0  0  0 
M  END
> <Name>
1,2,4,5,6,8-HEXACHLORONAPHTHALENE

> <Source>
Chemidplus3DMolFile

> <Tox>
-6.456

> <CAS>
90948-28-0

$$$$

  CDK

 27 28  0  0  0  0  0  0  0  0999 V2000
    9.2618   -3.2521    0.0000 S   0  0  0  0  0  0  0  0  0  0  0  0
    8.0928   -3.9565    0.0000 N   0  0  0  0  0  0  0  0  0  0  0  0
   10.4008   -2.5627    0.0000 C   0  0  0  0  0  0  0  0  0  0  0  0
    8.5574   -2.0832    0.0000 O   0  0  0  0  0  0  0  0  0  0  0  0
    9.9362   -4.3911    0.0000 O   0  0  0  0  0  0  0  0  0  0  0  0
    6.9239   -3.2971    0.0000 C   0  0  0  0  0  0  0  0  0  0  0  0
   11.5398   -3.2072    0.0000 C   0  0  0  0  0  0  0  0  0  0  0  0
   10.4008   -1.1989    0.0000 C   0  0  0  0  0  0  0  0  0  0  0  0
    5.7849   -3.9565    0.0000 N   0  0  0  0  0  0  0  0  0  0  0  0
    6.9239   -1.9483    0.0000 O   0  0  0  0  0  0  0  0  0  0  0  0
   11.5398   -4.5260    0.0000 C   0  0  0  0  0  0  0  0  0  0  0  0
   12.6938   -2.5627    0.0000 C   0  0  0  0  0  0  0  0  0  0  0  0
   11.5398   -0.5545    0.0000 C   0  0  0  0  0  0  0  0  0  0  0  0
    4.6159   -3.2971    0.0000 C   0  0  0  0  0  0  0  0  0  0  0  0
   10.4008   -5.1854    0.0000 O   0  0  0  0  0  0  0  0  0  0  0  0
   12.6938   -5.1704    0.0000 O   0  0  0  0  0  0  0  0  0  0  0  0
   12.6938   -1.2139    0.0000 C   0  0  0  0  0  0  0  0  0  0  0  0
    4.5859   -1.9633    0.0000 N   0  0  0  0  0  0  0  0  0  0  0  0
    3.4919   -3.9565    0.0000 N   0  0  0  0  0  0  0  0  0  0  0  0
   13.8327   -4.4960    0.0000 C   0  0  0  0  0  0  0  0  0  0  0  0
    3.4619   -1.3038    0.0000 C   0  0  0  0  0  0  0  0  0  0  0  0
    2.3229   -3.2971    0.0000 C   0  0  0  0  0  0  0  0  0  0  0  0
   14.9867   -5.1704    0.0000 C   0  0  0  0  0  0  0  0  0  0  0  0
    3.4619   -0.0000    0.0000 Cl  0  0  0  0  0  0  0  0  0  0  0  0
    2.3229   -1.9782    0.0000 C   0  0  0  0  0  0  0  0  0  0  0  0
    1.1540   -3.9265    0.0000 O   0  0  0  0  0  0  0  0  0  0  0  0
    0.0000   -3.2221    0.0000 C   0  0  0  0  0  0  0  0  0  0  0  0
  1  2  1  0  0  0  0 
  1  3  1  0  0  0  0 
  1  4  2  0  0  0  0 
  1  5  2  0  0  0  0 
  2  6  1  0  0  0  0 
  7  3  1  0  0  0  0 
  3  8  2  0  0  0  0 
  6  9  1  0  0  0  0 
  6 10  2  0  0  0  0 
  7 11  1  0  0  0  0 
  7 12  2  0  0  0  0 
  8 13  1  0  0  0  0 
 14  9  1  0  0  0  0 
 11 15  2  0  0  0  0 
 11 16  1  0  0  0  0 
 12 17  1  0  0  0  0 
 17 13  2  0  0  0  0 
 14 18  1  0  0  0  0 
 14 19  2  0  0  0  0 
 16 20  1  0  0  0  0 
 18 21  2  0  0  0  0 
 19 22  1  0  0  0  0 
 20 23  1  0  0  0  0 
 21 24  1  0  0  0  0 
 21 25  1  0  0  0  0 
 22 25  2  0  0  0  0 
 22 26  1  0  0  0  0 
 26 27  1  0  0  0  0 
M  END
> <Name>
CHLORIMURON-ETHYL

> <Source>
DSSTox2DMolFile

> <Tox>
-11.398

> <CAS>
90982-32-4

$$$$

  CDK

 16 18  0  0  0  0  0  0  0  0999 V2000
   -3.2127   -2.5281   -0.0004 Br  0  0  0  0  0  0  0  0  0  0  0  0
   -2.6544   -0.7154    0.0000 C   0  0  0  0  0  0  0  0  0  0  0  0
   -1.3056   -0.3613   -0.0001 C   0  0  0  0  0  0  0  0  0  0  0  0
   -3.6300    0.2819    0.0001 C   0  0  0  0  0  0  0  0  0  0  0  0
   -0.3812   -1.3750   -0.0001 O   0  0  0  0  0  0  0  0  0  0  0  0
   -0.9333    0.9820    0.0000 C   0  0  0  0  0  0  0  0  0  0  0  0
   -3.2570    1.6272    0.0003 C   0  0  0  0  0  0  0  0  0  0  0  0
    0.9332   -0.9820    0.0000 C   0  0  0  0  0  0  0  0  0  0  0  0
    0.3811    1.3751   -0.0001 O   0  0  0  0  0  0  0  0  0  0  0  0
   -1.9072    1.9799    0.0002 C   0  0  0  0  0  0  0  0  0  0  0  0
    1.3057    0.3615   -0.0001 C   0  0  0  0  0  0  0  0  0  0  0  0
    1.9073   -1.9798    0.0002 C   0  0  0  0  0  0  0  0  0  0  0  0
    2.6544    0.7154    0.0000 C   0  0  0  0  0  0  0  0  0  0  0  0
    3.2571   -1.6272    0.0003 C   0  0  0  0  0  0  0  0  0  0  0  0
    3.2124    2.5277   -0.0004 Br  0  0  0  0  0  0  0  0  0  0  0  0
    3.6300   -0.2819    0.0001 C   0  0  0  0  0  0  0  0  0  0  0  0
  1  2  1  0  0  0  0 
  3  2  1  0  0  0  0 
  2  4  2  0  0  0  0 
  5  3  1  0  0  0  0 
  3  6  2  0  0  0  0 
  4  7  1  0  0  0  0 
  5  8  1  0  0  0  0 
  9  6  1  0  0  0  0 
  6 10  1  0  0  0  0 
 10  7  2  0  0  0  0 
 11  8  2  0  0  0  0 
  8 12  1  0  0  0  0 
  9 11  1  0  0  0  0 
 11 13  1  0  0  0  0 
 12 14  2  0  0  0  0 
 15 13  1  0  0  0  0 
 13 16  2  0  0  0  0 
 16 14  1  0  0  0  0 
M  END
> <Name>
1,6-DIBROMODIBENZO-P-DIOXIN

> <Source>
Chemidplus3DMolFile

> <Tox>
-5.947

> <CAS>
91371-14-1

$$$$

  CDK

 31 33  0  0  0  0  0  0  0  0999 V2000
    3.4392   -3.8304    0.0000 C   0  0  0  0  0  0  0  0  0  0  0  0
    4.7758   -3.8304    0.0000 C   0  0  0  0  0  0  0  0  0  0  0  0
    4.1238   -4.9550    0.0000 C   0  0  0  0  0  0  0  0  0  0  0  0
    2.2982   -3.1458    0.0000 C   0  0  0  0  0  0  0  0  0  0  0  0
    5.9493   -3.1458    0.0000 C   0  0  0  0  0  0  0  0  0  0  0  0
    4.7758   -6.1123    0.0000 C   0  0  0  0  0  0  0  0  0  0  0  0
    3.4392   -6.1123    0.0000 C   0  0  0  0  0  0  0  0  0  0  0  0
    2.2982   -1.8092    0.0000 C   0  0  0  0  0  0  0  0  0  0  0  0
    7.0903   -3.8304    0.0000 O   0  0  0  0  0  0  0  0  0  0  0  0
    5.9493   -1.8092    0.0000 O   0  0  0  0  0  0  0  0  0  0  0  0
    1.1573   -1.1573    0.0000 C   0  0  0  0  0  0  0  0  0  0  0  0
    3.4392   -1.1573    0.0000 Cl  0  0  0  0  0  0  0  0  0  0  0  0
    8.2476   -3.1458    0.0000 C   0  0  0  0  0  0  0  0  0  0  0  0
    0.0000   -0.4727    0.0000 F   0  0  0  0  0  0  0  0  0  0  0  0
    0.4890   -2.2982    0.0000 F   0  0  0  0  0  0  0  0  0  0  0  0
    1.8255   -0.0000    0.0000 F   0  0  0  0  0  0  0  0  0  0  0  0
    9.4048   -3.8304    0.0000 C   0  0  0  0  0  0  0  0  0  0  0  0
    8.2476   -1.8092    0.0000 C   0  0  0  0  0  0  0  0  0  0  0  0
   10.5295   -3.1458    0.0000 C   0  0  0  0  0  0  0  0  0  0  0  0
    9.4048   -5.1506    0.0000 C   0  0  0  0  0  0  0  0  0  0  0  0
    8.2476   -0.4727    0.0000 N   0  0  0  0  0  0  0  0  0  0  0  0
   11.6867   -3.8304    0.0000 C   0  0  0  0  0  0  0  0  0  0  0  0
   10.5295   -5.8026    0.0000 C   0  0  0  0  0  0  0  0  0  0  0  0
   12.8603   -3.1458    0.0000 O   0  0  0  0  0  0  0  0  0  0  0  0
   11.6867   -5.1506    0.0000 C   0  0  0  0  0  0  0  0  0  0  0  0
   14.0013   -3.8304    0.0000 C   0  0  0  0  0  0  0  0  0  0  0  0
   15.1422   -3.1458    0.0000 C   0  0  0  0  0  0  0  0  0  0  0  0
   14.0013   -5.1506    0.0000 C   0  0  0  0  0  0  0  0  0  0  0  0
   16.2995   -3.8304    0.0000 C   0  0  0  0  0  0  0  0  0  0  0  0
   15.1422   -5.8026    0.0000 C   0  0  0  0  0  0  0  0  0  0  0  0
   16.2995   -5.1506    0.0000 C   0  0  0  0  0  0  0  0  0  0  0  0
  1  2  1  0  0  0  0 
  1  3  1  0  0  0  0 
  1  4  1  1  0  0  0 
  2  5  1  1  0  0  0 
  2  3  1  0  0  0  0 
  3  6  1  0  0  0  0 
  3  7  1  0  0  0  0 
  4  8  2  0  0  0  0 
  5  9  1  0  0  0  0 
  5 10  2  0  0  0  0 
  8 11  1  0  0  0  0 
  8 12  1  0  0  0  0 
  9 13  1  0  0  0  0 
 11 14  1  0  0  0  0 
 11 15  1  0  0  0  0 
 11 16  1  0  0  0  0 
 13 17  1  0  0  0  0 
 13 18  1  0  0  0  0 
 17 19  1  0  0  0  0 
 17 20  2  0  0  0  0 
 18 21  3  0  0  0  0 
 19 22  2  0  0  0  0 
 20 23  1  0  0  0  0 
 22 24  1  0  0  0  0 
 22 25  1  0  0  0  0 
 23 25  2  0  0  0  0 
 24 26  1  0  0  0  0 
 26 27  2  0  0  0  0 
 26 28  1  0  0  0  0 
 27 29  1  0  0  0  0 
 28 30  2  0  0  0  0 
 29 31  2  0  0  0  0 
 30 31  1  0  0  0  0 
M  END
> <Name>
LAMBDA-CYHALOTHRIN

> <Source>
DSSTox2DMolFile

> <Tox>
-8.824

> <CAS>
91465-08-6

$$$$

  CDK

 34 37  0  0  0  0  0  0  0  0999 V2000
   -1.0081   -4.4421    0.0000 F   0  0  0  0  0  0  0  0  0  0  0  0
   -0.4029   -5.0028    0.0000 C   0  0  0  0  0  0  0  0  0  0  0  0
   -0.5858   -5.8073    0.0000 C   0  0  0  0  0  0  0  0  0  0  0  0
    0.3852   -4.7590    0.0000 C   0  0  0  0  0  0  0  0  0  0  0  0
    0.0194   -6.3679    0.0000 C   0  0  0  0  0  0  0  0  0  0  0  0
    0.9905   -5.3197    0.0000 C   0  0  0  0  0  0  0  0  0  0  0  0
    0.5682   -3.9545    0.0000 C   0  0  0  0  0  0  0  0  0  0  0  0
    0.8075   -6.1241    0.0000 C   0  0  0  0  0  0  0  0  0  0  0  0
    1.7786   -5.0759    0.0000 F   0  0  0  0  0  0  0  0  0  0  0  0
    1.3563   -3.7107    0.0000 O   0  0  0  0  0  0  0  0  0  0  0  0
   -0.0370   -3.3939    0.0000 N   0  0  0  0  0  0  0  0  0  0  0  0
    0.1459   -2.5894    0.0000 C   0  0  0  0  0  0  0  0  0  0  0  0
    0.9341   -2.3456    0.0000 O   0  0  0  0  0  0  0  0  0  0  0  0
   -0.4593   -2.0288    0.0000 N   0  0  0  0  0  0  0  0  0  0  0  0
   -0.2764   -1.2243    0.0000 C   0  0  0  0  0  0  0  0  0  0  0  0
    0.5118   -0.9805    0.0000 C   0  0  0  0  0  0  0  0  0  0  0  0
   -0.8816   -0.6636    0.0000 C   0  0  0  0  0  0  0  0  0  0  0  0
    0.6947   -0.1760    0.0000 C   0  0  0  0  0  0  0  0  0  0  0  0
   -0.6987    0.1408    0.0000 C   0  0  0  0  0  0  0  0  0  0  0  0
    0.0895    0.3846    0.0000 C   0  0  0  0  0  0  0  0  0  0  0  0
    0.2724    1.1891    0.0000 C   0  0  0  0  0  0  0  0  0  0  0  0
    0.4554    1.9936    0.0000 O   0  0  0  0  0  0  0  0  0  0  0  0
   -0.1499    2.5542    0.0000 N   0  0  0  0  0  0  0  0  0  0  0  0
    0.0331    3.3587    0.0000 C   0  0  0  0  0  0  0  0  0  0  0  0
    0.8212    3.6025    0.0000 C   0  0  0  0  0  0  0  0  0  0  0  0
   -0.5721    3.9193    0.0000 C   0  0  0  0  0  0  0  0  0  0  0  0
    1.5357    3.1900    0.0000 C   0  0  0  0  0  0  0  0  0  0  0  0
    1.5357    4.0150    0.0000 C   0  0  0  0  0  0  0  0  0  0  0  0
   -0.3892    4.7238    0.0000 C   0  0  0  0  0  0  0  0  0  0  0  0
   -1.3603    3.6755    0.0000 C   0  0  0  0  0  0  0  0  0  0  0  0
   -0.9944    5.2845    0.0000 C   0  0  0  0  0  0  0  0  0  0  0  0
   -1.9655    4.2362    0.0000 C   0  0  0  0  0  0  0  0  0  0  0  0
   -1.7826    5.0406    0.0000 C   0  0  0  0  0  0  0  0  0  0  0  0
   -2.3878    5.6013    0.0000 Cl  0  0  0  0  0  0  0  0  0  0  0  0
  1  2  1  0  0  0  0 
  2  3  1  0  0  0  0 
  2  4  2  0  0  0  0 
  3  5  2  0  0  0  0 
  6  4  1  0  0  0  0 
  4  7  1  0  0  0  0 
  5  8  1  0  0  0  0 
  8  6  2  0  0  0  0 
  6  9  1  0  0  0  0 
  7 10  2  0  0  0  0 
  7 11  1  0  0  0  0 
 11 12  1  0  0  0  0 
 12 13  2  0  0  0  0 
 12 14  1  0  0  0  0 
 14 15  1  0  0  0  0 
 15 16  1  0  0  0  0 
 15 17  2  0  0  0  0 
 16 18  2  0  0  0  0 
 19 17  1  0  0  0  0 
 18 20  1  0  0  0  0 
 20 19  2  0  0  0  0 
 20 21  1  0  0  0  0 
 21 22  1  0  0  0  0 
 23 22  1  0  0  0  0 
 23 24  2  0  0  0  0 
 24 25  1  0  0  0  0 
 24 26  1  0  0  0  0 
 25 27  1  0  0  0  0 
 25 28  1  0  0  0  0 
 26 29  1  0  0  0  0 
 26 30  2  0  0  0  0 
 27 28  1  0  0  0  0 
 29 31  2  0  0  0  0 
 32 30  1  0  0  0  0 
 31 33  1  0  0  0  0 
 33 32  2  0  0  0  0 
 33 34  1  0  0  0  0 
M  END
> <Name>
FLUCYCLOXURON,(E)-ISOMER

> <Source>
Smiles

> <Tox>
-9.393

> <CAS>
94050-52-9

$$$$

  CDK

 34 37  0  0  0  0  0  0  0  0999 V2000
   -1.0081   -4.4421    0.0000 F   0  0  0  0  0  0  0  0  0  0  0  0
   -0.4029   -5.0028    0.0000 C   0  0  0  0  0  0  0  0  0  0  0  0
   -0.5858   -5.8073    0.0000 C   0  0  0  0  0  0  0  0  0  0  0  0
    0.3852   -4.7590    0.0000 C   0  0  0  0  0  0  0  0  0  0  0  0
    0.0194   -6.3679    0.0000 C   0  0  0  0  0  0  0  0  0  0  0  0
    0.9905   -5.3197    0.0000 C   0  0  0  0  0  0  0  0  0  0  0  0
    0.5682   -3.9545    0.0000 C   0  0  0  0  0  0  0  0  0  0  0  0
    0.8075   -6.1241    0.0000 C   0  0  0  0  0  0  0  0  0  0  0  0
    1.7786   -5.0759    0.0000 F   0  0  0  0  0  0  0  0  0  0  0  0
    1.3563   -3.7107    0.0000 O   0  0  0  0  0  0  0  0  0  0  0  0
   -0.0370   -3.3939    0.0000 N   0  0  0  0  0  0  0  0  0  0  0  0
    0.1459   -2.5894    0.0000 C   0  0  0  0  0  0  0  0  0  0  0  0
    0.9341   -2.3456    0.0000 O   0  0  0  0  0  0  0  0  0  0  0  0
   -0.4593   -2.0288    0.0000 N   0  0  0  0  0  0  0  0  0  0  0  0
   -0.2764   -1.2243    0.0000 C   0  0  0  0  0  0  0  0  0  0  0  0
    0.5118   -0.9805    0.0000 C   0  0  0  0  0  0  0  0  0  0  0  0
   -0.8816   -0.6636    0.0000 C   0  0  0  0  0  0  0  0  0  0  0  0
    0.6947   -0.1760    0.0000 C   0  0  0  0  0  0  0  0  0  0  0  0
   -0.6987    0.1408    0.0000 C   0  0  0  0  0  0  0  0  0  0  0  0
    0.0895    0.3846    0.0000 C   0  0  0  0  0  0  0  0  0  0  0  0
    0.2724    1.1891    0.0000 C   0  0  0  0  0  0  0  0  0  0  0  0
    0.4554    1.9936    0.0000 O   0  0  0  0  0  0  0  0  0  0  0  0
   -0.1499    2.5542    0.0000 N   0  0  0  0  0  0  0  0  0  0  0  0
    0.0331    3.3587    0.0000 C   0  0  0  0  0  0  0  0  0  0  0  0
    0.8212    3.6025    0.0000 C   0  0  0  0  0  0  0  0  0  0  0  0
   -0.5721    3.9193    0.0000 C   0  0  0  0  0  0  0  0  0  0  0  0
    1.5357    3.1900    0.0000 C   0  0  0  0  0  0  0  0  0  0  0  0
    1.5357    4.0150    0.0000 C   0  0  0  0  0  0  0  0  0  0  0  0
   -0.3892    4.7238    0.0000 C   0  0  0  0  0  0  0  0  0  0  0  0
   -1.3603    3.6755    0.0000 C   0  0  0  0  0  0  0  0  0  0  0  0
   -0.9944    5.2845    0.0000 C   0  0  0  0  0  0  0  0  0  0  0  0
   -1.9655    4.2362    0.0000 C   0  0  0  0  0  0  0  0  0  0  0  0
   -1.7826    5.0406    0.0000 C   0  0  0  0  0  0  0  0  0  0  0  0
   -2.3878    5.6013    0.0000 Cl  0  0  0  0  0  0  0  0  0  0  0  0
  1  2  1  0  0  0  0 
  2  3  1  0  0  0  0 
  2  4  2  0  0  0  0 
  3  5  2  0  0  0  0 
  6  4  1  0  0  0  0 
  4  7  1  0  0  0  0 
  5  8  1  0  0  0  0 
  8  6  2  0  0  0  0 
  6  9  1  0  0  0  0 
  7 10  2  0  0  0  0 
  7 11  1  0  0  0  0 
 11 12  1  0  0  0  0 
 12 13  2  0  0  0  0 
 12 14  1  0  0  0  0 
 14 15  1  0  0  0  0 
 15 16  1  0  0  0  0 
 15 17  2  0  0  0  0 
 16 18  2  0  0  0  0 
 19 17  1  0  0  0  0 
 18 20  1  0  0  0  0 
 20 19  2  0  0  0  0 
 20 21  1  0  0  0  0 
 21 22  1  0  0  0  0 
 23 22  1  0  0  0  0 
 23 24  2  0  0  0  0 
 24 25  1  0  0  0  0 
 24 26  1  0  0  0  0 
 25 27  1  0  0  0  0 
 25 28  1  0  0  0  0 
 26 29  1  0  0  0  0 
 26 30  2  0  0  0  0 
 27 28  1  0  0  0  0 
 29 31  2  0  0  0  0 
 32 30  1  0  0  0  0 
 31 33  1  0  0  0  0 
 33 32  2  0  0  0  0 
 33 34  1  0  0  0  0 
M  END
> <Name>
FLUCYCLOXURON,(Z)-ISOMER

> <Source>
Smiles

> <Tox>
-9.393

> <CAS>
94050-53-0

$$$$

  CDK

 18 19  0  0  0  0  0  0  0  0999 V2000
    3.6844   -2.5433    0.0000 C   0  0  0  0  0  0  0  0  0  0  0  0
    4.4096   -3.7037    0.0000 C   0  0  0  0  0  0  0  0  0  0  0  0
    4.4096   -1.3732    0.0000 C   0  0  0  0  0  0  0  0  0  0  0  0
    2.3112   -2.5433    0.0000 C   0  0  0  0  0  0  0  0  0  0  0  0
    5.7248   -3.7037    0.0000 C   0  0  0  0  0  0  0  0  0  0  0  0
    5.7248   -1.3732    0.0000 C   0  0  0  0  0  0  0  0  0  0  0  0
    1.6246   -1.3442    0.0000 O   0  0  0  0  0  0  0  0  0  0  0  0
    1.6246   -3.7037    0.0000 O   0  0  0  0  0  0  0  0  0  0  0  0
    6.4597   -2.5433    0.0000 C   0  0  0  0  0  0  0  0  0  0  0  0
    6.3920   -4.8835    0.0000 O   0  0  0  0  0  0  0  0  0  0  0  0
    6.3920   -0.1837    0.0000 O   0  0  0  0  0  0  0  0  0  0  0  0
    0.5415   -3.7037    0.0000 C   0  0  0  0  0  0  0  0  0  0  0  0
    7.8135   -2.5433    0.0000 C   0  0  0  0  0  0  0  0  0  0  0  0
    0.0000   -4.6417    0.0000 C   0  0  0  0  0  0  0  0  0  0  0  0
    8.4904   -1.3442    0.0000 C   0  0  0  0  0  0  0  0  0  0  0  0
    8.4904   -3.7230    0.0000 O   0  0  0  0  0  0  0  0  0  0  0  0
    9.6702   -0.6672    0.0000 C   0  0  0  0  0  0  0  0  0  0  0  0
    8.4904   -0.0000    0.0000 C   0  0  0  0  0  0  0  0  0  0  0  0
  1  2  1  0  0  0  0 
  1  3  1  0  0  0  0 
  1  4  1  0  0  0  0 
  2  5  1  0  0  0  0 
  6  3  1  0  0  0  0 
  4  7  2  0  0  0  0 
  4  8  1  0  0  0  0 
  5  9  1  0  0  0  0 
  5 10  2  0  0  0  0 
  9  6  1  0  0  0  0 
  6 11  2  0  0  0  0 
  8 12  1  0  0  0  0 
  9 13  2  0  0  0  0 
 12 14  1  0  0  0  0 
 13 15  1  0  0  0  0 
 13 16  1  0  0  0  0 
 15 17  1  0  0  0  0 
 15 18  1  0  0  0  0 
 17 18  1  0  0  0  0 
M  END
> <Name>
Trinexapac-ethyl

> <Source>
DSSTox2DMolFile

> <Tox>
-4.790

> <CAS>
95266-40-3

$$$$

  CDK

 15 14  0  0  0  0  0  0  0  0999 V2000
    4.8336    4.6928    0.0000 O   0  0  0  0  0  0  0  0  0  0  0  0
    4.8336    3.3319    0.0000 P   0  0  0  0  0  0  0  0  0  0  0  0
    3.6135    2.6280    0.0000 S   0  0  0  0  0  0  0  0  0  0  0  0
    6.1945    2.9565    0.0000 O   0  0  0  0  0  0  0  0  0  0  0  0
    5.8191    2.3464    0.0000 S   0  0  0  0  0  0  0  0  0  0  0  0
    2.3933    3.3319    0.0000 C   0  0  0  0  0  0  0  0  0  0  0  0
    7.1800    3.9420    0.0000 C   0  0  0  0  0  0  0  0  0  0  0  0
    5.4437    0.9855    0.0000 C   0  0  0  0  0  0  0  0  0  0  0  0
    1.1732    2.6280    0.0000 C   0  0  0  0  0  0  0  0  0  0  0  0
    2.3933    4.6928    0.0000 C   0  0  0  0  0  0  0  0  0  0  0  0
    8.5409    3.6135    0.0000 C   0  0  0  0  0  0  0  0  0  0  0  0
    6.4761    0.0000    0.0000 C   0  0  0  0  0  0  0  0  0  0  0  0
    4.1297    0.6101    0.0000 C   0  0  0  0  0  0  0  0  0  0  0  0
    0.0000    3.3319    0.0000 C   0  0  0  0  0  0  0  0  0  0  0  0
    7.8370    0.3285    0.0000 C   0  0  0  0  0  0  0  0  0  0  0  0
  1  2  2  0  0  0  0 
  2  3  1  0  0  0  0 
  2  4  1  0  0  0  0 
  2  5  1  0  0  0  0 
  3  6  1  0  0  0  0 
  4  7  1  0  0  0  0 
  5  8  1  0  0  0  0 
  6  9  1  0  0  0  0 
  6 10  1  0  0  0  0 
  7 11  1  0  0  0  0 
  8 12  1  0  0  0  0 
  8 13  1  0  0  0  0 
  9 14  1  0  0  0  0 
 12 15  1  0  0  0  0 
M  END
> <Name>
CADUSAFOS

> <Source>
IndexNet2DMolFile

> <Tox>
-3.046

> <CAS>
95465-99-9

$$$$

  CDK

 16 16  0  0  0  0  0  0  0  0999 V2000
    3.4289   -2.1235    0.0000 P   0  0  0  0  0  0  0  0  0  0  0  0
    3.0104   -0.8682    0.0000 O   0  0  0  0  0  0  0  0  0  0  0  0
    4.7030   -1.7051    0.0000 O   0  0  0  0  0  0  0  0  0  0  0  0
    3.8474   -3.3914    0.0000 S   0  0  0  0  0  0  0  0  0  0  0  0
    2.1548   -2.5233    0.0000 N   0  0  0  0  0  0  0  0  0  0  0  0
    4.9716   -0.4185    0.0000 C   0  0  0  0  0  0  0  0  0  0  0  0
    5.1527   -3.6662    0.0000 C   0  0  0  0  0  0  0  0  0  0  0  0
    1.0805   -1.7488    0.0000 C   0  0  0  0  0  0  0  0  0  0  0  0
    1.7363   -3.7974    0.0000 C   0  0  0  0  0  0  0  0  0  0  0  0
    6.2457   -0.0000    0.0000 C   0  0  0  0  0  0  0  0  0  0  0  0
    5.5525   -4.9216    0.0000 C   0  0  0  0  0  0  0  0  0  0  0  0
    6.0334   -2.6857    0.0000 C   0  0  0  0  0  0  0  0  0  0  0  0
    0.0000   -2.5233    0.0000 S   0  0  0  0  0  0  0  0  0  0  0  0
    1.0805   -0.4185    0.0000 O   0  0  0  0  0  0  0  0  0  0  0  0
    0.4185   -3.7974    0.0000 C   0  0  0  0  0  0  0  0  0  0  0  0
    4.6656   -5.9210    0.0000 C   0  0  0  0  0  0  0  0  0  0  0  0
  1  2  2  0  0  0  0 
  1  3  1  0  0  0  0 
  1  4  1  0  0  0  0 
  1  5  1  0  0  0  0 
  3  6  1  0  0  0  0 
  4  7  1  0  0  0  0 
  5  8  1  0  0  0  0 
  5  9  1  0  0  0  0 
  6 10  1  0  0  0  0 
  7 11  1  0  0  0  0 
  7 12  1  0  0  0  0 
  8 13  1  0  0  0  0 
  8 14  2  0  0  0  0 
  9 15  1  0  0  0  0 
 11 16  1  0  0  0  0 
 13 15  1  0  0  0  0 
M  END
> <Name>
Fosthiazate

> <Source>
DSSTox2DMolFile

> <Tox>
-5.377

> <CAS>
98886-44-3

$$$$

  CDK

 21 22  0  0  0  0  0  0  0  0999 V2000
    1.2127    2.0988    0.0000 C   0  0  0  0  0  0  0  0  0  0  0  0
    1.2127    0.6996    0.0000 C   0  0  0  0  0  0  0  0  0  0  0  0
    2.4253    2.7984    0.0000 C   0  0  0  0  0  0  0  0  0  0  0  0
    0.0000    2.7984    0.0000 O   0  0  0  0  0  0  0  0  0  0  0  0
    2.4253    0.0000    0.0000 C   0  0  0  0  0  0  0  0  0  0  0  0
    3.6380    2.0988    0.0000 C   0  0  0  0  0  0  0  0  0  0  0  0
    2.4253    4.1977    0.0000 C   0  0  0  0  0  0  0  0  0  0  0  0
    3.6380    0.6996    0.0000 C   0  0  0  0  0  0  0  0  0  0  0  0
    4.8506    2.7984    0.0000 O   0  0  0  0  0  0  0  0  0  0  0  0
    1.2127    4.8973    0.0000 O   0  0  0  0  0  0  0  0  0  0  0  0
    3.6380    4.8973    0.0000 C   0  0  0  0  0  0  0  0  0  0  0  0
    4.8506    4.1977    0.0000 C   0  0  0  0  0  0  0  0  0  0  0  0
    3.6380    6.2965    0.0000 C   0  0  0  0  0  0  0  0  0  0  0  0
    6.0633    4.8973    0.0000 C   0  0  0  0  0  0  0  0  0  0  0  0
    4.8506    6.9961    0.0000 C   0  0  0  0  0  0  0  0  0  0  0  0
    2.4253    6.9961    0.0000 Cl  0  0  0  0  0  0  0  0  0  0  0  0
    6.0633    6.2965    0.0000 C   0  0  0  0  0  0  0  0  0  0  0  0
    7.2760    6.9961    0.0000 S   0  0  0  0  0  0  0  0  0  0  0  0
    8.4886    7.6957    0.0000 C   0  0  0  0  0  0  0  0  0  0  0  0
    6.5763    8.2088    0.0000 O   0  0  0  0  0  0  0  0  0  0  0  0
    7.9756    5.7835    0.0000 O   0  0  0  0  0  0  0  0  0  0  0  0
  1  2  1  0  0  0  0 
  1  3  1  0  0  0  0 
  1  4  2  0  0  0  0 
  2  5  1  0  0  0  0 
  6  3  1  0  0  0  0 
  3  7  1  0  0  0  0 
  5  8  1  0  0  0  0 
  8  6  1  0  0  0  0 
  6  9  2  0  0  0  0 
  7 10  2  0  0  0  0 
  7 11  1  0  0  0  0 
 11 12  2  0  0  0  0 
 11 13  1  0  0  0  0 
 12 14  1  0  0  0  0 
 15 13  2  0  0  0  0 
 13 16  1  0  0  0  0 
 14 17  2  0  0  0  0 
 17 15  1  0  0  0  0 
 17 18  1  0  0  0  0 
 18 19  1  0  0  0  0 
 18 20  2  0  0  0  0 
 18 21  2  0  0  0  0 
M  END
> <Name>
ICIA0051 (sulcotrione)

> <Source>
IndexNet2DMolFile

> <Tox>
-7.426

> <CAS>
99105-77-8

$$$$

  CDK

 23 24  0  0  0  0  0  0  0  0999 V2000
    8.4886    3.4981    0.0000 C   0  0  0  0  0  0  0  0  0  0  0  0
    8.4886    2.0988    0.0000 C   0  0  0  0  0  0  0  0  0  0  0  0
    9.7013    4.1977    0.0000 C   0  0  0  0  0  0  0  0  0  0  0  0
    9.7013    1.3992    0.0000 C   0  0  0  0  0  0  0  0  0  0  0  0
   10.9139    3.4981    0.0000 C   0  0  0  0  0  0  0  0  0  0  0  0
    9.7013    5.5969    0.0000 O   0  0  0  0  0  0  0  0  0  0  0  0
   10.9139    2.0988    0.0000 C   0  0  0  0  0  0  0  0  0  0  0  0
    9.7013    0.0000    0.0000 Cl  0  0  0  0  0  0  0  0  0  0  0  0
   12.1266    4.1977    0.0000 N   0  0  0  0  0  0  0  0  0  0  0  0
    8.4886    6.2965    0.0000 C   0  0  0  0  0  0  0  0  0  0  0  0
   12.1266    1.3992    0.0000 C   0  0  0  0  0  0  0  0  0  0  0  0
   13.3393    3.4981    0.0000 C   0  0  0  0  0  0  0  0  0  0  0  0
    8.4886    7.6957    0.0000 C   0  0  0  0  0  0  0  0  0  0  0  0
   13.3393    2.0988    0.0000 C   0  0  0  0  0  0  0  0  0  0  0  0
    7.2760    8.3953    0.0000 O   0  0  0  0  0  0  0  0  0  0  0  0
    9.7013    8.3953    0.0000 O   0  0  0  0  0  0  0  0  0  0  0  0
    6.0633    7.6957    0.0000 C   0  0  0  0  0  0  0  0  0  0  0  0
    4.8506    8.3953    0.0000 C   0  0  0  0  0  0  0  0  0  0  0  0
    6.0633    6.2965    0.0000 C   0  0  0  0  0  0  0  0  0  0  0  0
    3.6380    7.6957    0.0000 C   0  0  0  0  0  0  0  0  0  0  0  0
    2.4253    8.3953    0.0000 C   0  0  0  0  0  0  0  0  0  0  0  0
    1.2127    7.6957    0.0000 C   0  0  0  0  0  0  0  0  0  0  0  0
    0.0000    8.3953    0.0000 C   0  0  0  0  0  0  0  0  0  0  0  0
  1  2  2  0  0  0  0 
  1  3  1  0  0  0  0 
  2  4  1  0  0  0  0 
  5  3  2  0  0  0  0 
  3  6  1  0  0  0  0 
  4  7  2  0  0  0  0 
  4  8  1  0  0  0  0 
  7  5  1  0  0  0  0 
  5  9  1  0  0  0  0 
  6 10  1  0  0  0  0 
  7 11  1  0  0  0  0 
 12  9  2  0  0  0  0 
 10 13  1  0  0  0  0 
 11 14  2  0  0  0  0 
 14 12  1  0  0  0  0 
 13 15  1  0  0  0  0 
 13 16  2  0  0  0  0 
 15 17  1  0  0  0  0 
 17 18  1  0  0  0  0 
 17 19  1  0  0  0  0 
 18 20  1  0  0  0  0 
 20 21  1  0  0  0  0 
 21 22  1  0  0  0  0 
 22 23  1  0  0  0  0 
M  END
> <Name>
Cloquintocet-mexyl

> <Source>
IndexNet2DMolFile

> <Tox>
-7.398

> <CAS>
99607-70-2

$$$$

  CDK

 16 17  0  0  0  0  0  0  0  0999 V2000
   -1.0703   -2.9444   -0.0011 Cl  0  0  0  0  0  0  0  0  0  0  0  0
   -0.9836   -1.1926    0.0004 C   0  0  0  0  0  0  0  0  0  0  0  0
    0.1875   -0.4176    0.0000 C   0  0  0  0  0  0  0  0  0  0  0  0
   -2.2394   -0.5848    0.0004 C   0  0  0  0  0  0  0  0  0  0  0  0
    0.0834    0.9938   -0.0005 C   0  0  0  0  0  0  0  0  0  0  0  0
    1.4597   -1.0125    0.0000 C   0  0  0  0  0  0  0  0  0  0  0  0
   -3.7291   -1.5059    0.0000 Cl  0  0  0  0  0  0  0  0  0  0  0  0
   -2.3418    0.8031    0.0000 C   0  0  0  0  0  0  0  0  0  0  0  0
   -1.1889    1.5887   -0.0004 C   0  0  0  0  0  0  0  0  0  0  0  0
    1.2546    1.7688   -0.0009 C   0  0  0  0  0  0  0  0  0  0  0  0
    1.8231   -2.7264    0.0013 Cl  0  0  0  0  0  0  0  0  0  0  0  0
    2.6128   -0.2270   -0.0005 C   0  0  0  0  0  0  0  0  0  0  0  0
   -3.8592    1.6411    0.0004 Cl  0  0  0  0  0  0  0  0  0  0  0  0
    1.2434    3.5047    0.0013 Cl  0  0  0  0  0  0  0  0  0  0  0  0
    2.5104    1.1609   -0.0010 C   0  0  0  0  0  0  0  0  0  0  0  0
    4.2373   -0.8498    0.0006 Cl  0  0  0  0  0  0  0  0  0  0  0  0
  1  2  1  0  0  0  0 
  3  2  2  0  0  0  0 
  2  4  1  0  0  0  0 
  3  5  1  0  0  0  0 
  3  6  1  0  0  0  0 
  7  4  1  0  0  0  0 
  4  8  2  0  0  0  0 
  5  9  2  0  0  0  0 
  5 10  1  0  0  0  0 
 11  6  1  0  0  0  0 
  6 12  2  0  0  0  0 
 13  8  1  0  0  0  0 
  9  8  1  0  0  0  0 
 14 10  1  0  0  0  0 
 10 15  2  0  0  0  0 
 16 12  1  0  0  0  0 
 12 15  1  0  0  0  0 
M  END
> <Name>
1,2,3,5,7,8-HEXACHLORONAPHTHALENE

> <Source>
Chemidplus3DMolFile

> <Tox>
-6.456

> <CAS>
103426-94-4

$$$$

  CDK

 35 40  0  0  0  0  0  0  0  0999 V2000
    0.0000   -3.4507    0.0000 S   0  0  0  0  0  0  0  0  0  0  0  0
    0.6706   -2.3051    0.0000 C   0  0  0  0  0  0  0  0  0  0  0  0
    0.6706   -4.6102    0.0000 C   0  0  0  0  0  0  0  0  0  0  0  0
    1.9978   -2.3051    0.0000 C   0  0  0  0  0  0  0  0  0  0  0  0
    0.0000   -1.1456    0.0000 C   0  0  0  0  0  0  0  0  0  0  0  0
    1.9978   -4.6102    0.0000 C   0  0  0  0  0  0  0  0  0  0  0  0
    0.0000   -5.7418    0.0000 O   0  0  0  0  0  0  0  0  0  0  0  0
    2.6544   -3.4507    0.0000 C   0  0  0  0  0  0  0  0  0  0  0  0
    2.6544   -1.1456    0.0000 C   0  0  0  0  0  0  0  0  0  0  0  0
    0.6706   -0.0000    0.0000 C   0  0  0  0  0  0  0  0  0  0  0  0
    2.6544   -5.7418    0.0000 C   0  0  0  0  0  0  0  0  0  0  0  0
    3.9955   -3.4507    0.0000 O   0  0  0  0  0  0  0  0  0  0  0  0
    1.9978   -0.0000    0.0000 C   0  0  0  0  0  0  0  0  0  0  0  0
    1.9978   -6.9014    0.0000 C   0  0  0  0  0  0  0  0  0  0  0  0
    3.9955   -5.7418    0.0000 C   0  0  0  0  0  0  0  0  0  0  0  0
    2.6544   -8.0469    0.0000 C   0  0  0  0  0  0  0  0  0  0  0  0
    0.6706   -6.9014    0.0000 C   0  0  0  0  0  0  0  0  0  0  0  0
    4.6661   -6.9014    0.0000 C   0  0  0  0  0  0  0  0  0  0  0  0
    1.9978   -9.2065    0.0000 C   0  0  0  0  0  0  0  0  0  0  0  0
    3.9955   -8.0469    0.0000 C   0  0  0  0  0  0  0  0  0  0  0  0
    0.0000   -8.0469    0.0000 C   0  0  0  0  0  0  0  0  0  0  0  0
    5.9933   -6.9014    0.0000 C   0  0  0  0  0  0  0  0  0  0  0  0
    0.6706   -9.2065    0.0000 C   0  0  0  0  0  0  0  0  0  0  0  0
    6.6499   -8.0469    0.0000 C   0  0  0  0  0  0  0  0  0  0  0  0
    6.6499   -5.7418    0.0000 C   0  0  0  0  0  0  0  0  0  0  0  0
    7.9771   -8.0469    0.0000 C   0  0  0  0  0  0  0  0  0  0  0  0
    7.9771   -5.7418    0.0000 C   0  0  0  0  0  0  0  0  0  0  0  0
    8.6477   -6.9014    0.0000 C   0  0  0  0  0  0  0  0  0  0  0  0
    9.9749   -6.9014    0.0000 C   0  0  0  0  0  0  0  0  0  0  0  0
   10.6315   -5.7418    0.0000 C   0  0  0  0  0  0  0  0  0  0  0  0
   10.6315   -8.0469    0.0000 C   0  0  0  0  0  0  0  0  0  0  0  0
   11.9726   -5.7418    0.0000 C   0  0  0  0  0  0  0  0  0  0  0  0
   11.9726   -8.0469    0.0000 C   0  0  0  0  0  0  0  0  0  0  0  0
   12.6432   -6.9014    0.0000 C   0  0  0  0  0  0  0  0  0  0  0  0
   13.9704   -6.9014    0.0000 Br  0  0  0  0  0  0  0  0  0  0  0  0
  1  2  1  0  0  0  0 
  1  3  1  0  0  0  0 
  2  4  1  0  0  0  0 
  2  5  2  0  0  0  0 
  6  3  1  0  0  0  0 
  3  7  2  0  0  0  0 
  4  8  1  0  0  0  0 
  4  9  2  0  0  0  0 
  5 10  1  0  0  0  0 
  8  6  2  0  0  0  0 
  6 11  1  0  0  0  0 
  8 12  1  0  0  0  0 
 13  9  1  0  0  0  0 
 10 13  2  0  0  0  0 
 14 11  1  0  0  0  0 
 11 15  1  0  0  0  0 
 14 16  2  0  0  0  0 
 14 17  1  0  0  0  0 
 15 18  1  0  0  0  0 
 16 19  1  0  0  0  0 
 16 20  1  0  0  0  0 
 17 21  2  0  0  0  0 
 20 18  1  0  0  0  0 
 18 22  1  0  0  0  0 
 19 23  2  0  0  0  0 
 23 21  1  0  0  0  0 
 24 22  2  0  0  0  0 
 25 22  1  0  0  0  0 
 26 24  1  0  0  0  0 
 27 25  2  0  0  0  0 
 28 26  2  0  0  0  0 
 28 27  1  0  0  0  0 
 28 29  1  0  0  0  0 
 29 30  2  0  0  0  0 
 29 31  1  0  0  0  0 
 30 32  1  0  0  0  0 
 31 33  2  0  0  0  0 
 32 34  2  0  0  0  0 
 33 34  1  0  0  0  0 
 34 35  1  0  0  0  0 
M  END
> <Name>
Difethialone

> <Source>
DSSTox2DMolFile

> <Tox>
-6.256

> <CAS>
104653-34-1

$$$$

  CDK

 24 25  0  0  0  0  0  0  0  0999 V2000
   10.3661   -2.0044    0.0000 C   0  0  0  0  0  0  0  0  0  0  0  0
   10.3661   -0.6731    0.0000 C   0  0  0  0  0  0  0  0  0  0  0  0
   11.5179   -2.6626    0.0000 O   0  0  0  0  0  0  0  0  0  0  0  0
    9.2143   -2.6626    0.0000 O   0  0  0  0  0  0  0  0  0  0  0  0
   11.5179   -0.0000    0.0000 C   0  0  0  0  0  0  0  0  0  0  0  0
    9.2143   -0.0000    0.0000 O   0  0  0  0  0  0  0  0  0  0  0  0
   12.6548   -2.0044    0.0000 C   0  0  0  0  0  0  0  0  0  0  0  0
    8.0625   -0.6731    0.0000 C   0  0  0  0  0  0  0  0  0  0  0  0
   13.8066   -2.6626    0.0000 C   0  0  0  0  0  0  0  0  0  0  0  0
    8.0625   -2.0044    0.0000 C   0  0  0  0  0  0  0  0  0  0  0  0
    6.8958   -0.0000    0.0000 C   0  0  0  0  0  0  0  0  0  0  0  0
   14.9583   -3.3357    0.0000 C   0  0  0  0  0  0  0  0  0  0  0  0
    6.8958   -2.6626    0.0000 C   0  0  0  0  0  0  0  0  0  0  0  0
    5.7440   -0.6731    0.0000 C   0  0  0  0  0  0  0  0  0  0  0  0
    5.7440   -2.0044    0.0000 C   0  0  0  0  0  0  0  0  0  0  0  0
    4.5922   -2.6626    0.0000 O   0  0  0  0  0  0  0  0  0  0  0  0
    3.4404   -2.0044    0.0000 C   0  0  0  0  0  0  0  0  0  0  0  0
    2.3036   -2.6626    0.0000 N   0  0  0  0  0  0  0  0  0  0  0  0
    3.4404   -0.6731    0.0000 C   0  0  0  0  0  0  0  0  0  0  0  0
    1.1518   -2.0044    0.0000 C   0  0  0  0  0  0  0  0  0  0  0  0
    2.3036   -0.0000    0.0000 C   0  0  0  0  0  0  0  0  0  0  0  0
    4.5922   -0.0000    0.0000 F   0  0  0  0  0  0  0  0  0  0  0  0
    1.1518   -0.6731    0.0000 C   0  0  0  0  0  0  0  0  0  0  0  0
    0.0000   -0.0000    0.0000 Cl  0  0  0  0  0  0  0  0  0  0  0  0
  1  2  1  0  0  0  0 
  1  3  1  0  0  0  0 
  1  4  2  0  0  0  0 
  2  5  1  6  0  0  0 
  2  6  1  0  0  0  0 
  3  7  1  0  0  0  0 
  6  8  1  0  0  0  0 
  7  9  1  0  0  0  0 
  8 10  2  0  0  0  0 
  8 11  1  0  0  0  0 
  9 12  3  0  0  0  0 
 10 13  1  0  0  0  0 
 11 14  2  0  0  0  0 
 13 15  2  0  0  0  0 
 14 15  1  0  0  0  0 
 15 16  1  0  0  0  0 
 16 17  1  0  0  0  0 
 18 17  2  0  0  0  0 
 17 19  1  0  0  0  0 
 18 20  1  0  0  0  0 
 19 21  2  0  0  0  0 
 19 22  1  0  0  0  0 
 20 23  2  0  0  0  0 
 23 21  1  0  0  0  0 
 23 24  1  0  0  0  0 
M  END
> <Name>
CLODINAFOP-PROPARGYL

> <Source>
DSSTox2DMolFile

> <Tox>
-7.620

> <CAS>
105512-06-9

$$$$

  CDK

 16 18  0  0  0  0  0  0  0  0999 V2000
    5.2118   -1.4358    0.0011 Br  0  0  0  0  0  0  0  0  0  0  0  0
    3.5734   -0.4929   -0.0002 C   0  0  0  0  0  0  0  0  0  0  0  0
    2.3668   -1.1933   -0.0003 C   0  0  0  0  0  0  0  0  0  0  0  0
    3.5734    0.9031   -0.0002 C   0  0  0  0  0  0  0  0  0  0  0  0
    1.1616   -0.4920   -0.0003 C   0  0  0  0  0  0  0  0  0  0  0  0
    2.3668    1.6035   -0.0002 C   0  0  0  0  0  0  0  0  0  0  0  0
   -0.0001   -1.2218   -0.0005 O   0  0  0  0  0  0  0  0  0  0  0  0
    1.1616    0.9022   -0.0002 C   0  0  0  0  0  0  0  0  0  0  0  0
   -1.1616   -0.4919   -0.0002 C   0  0  0  0  0  0  0  0  0  0  0  0
   -0.0001    1.6320   -0.0001 O   0  0  0  0  0  0  0  0  0  0  0  0
   -1.1617    0.9021    0.0000 C   0  0  0  0  0  0  0  0  0  0  0  0
   -2.3668   -1.1934   -0.0002 C   0  0  0  0  0  0  0  0  0  0  0  0
   -2.3668    1.6035    0.0004 C   0  0  0  0  0  0  0  0  0  0  0  0
   -3.5734   -0.4929    0.0001 C   0  0  0  0  0  0  0  0  0  0  0  0
   -3.5734    0.9031    0.0004 C   0  0  0  0  0  0  0  0  0  0  0  0
   -5.2116   -1.4357    0.0002 Br  0  0  0  0  0  0  0  0  0  0  0  0
  1  2  1  0  0  0  0 
  3  2  2  0  0  0  0 
  2  4  1  0  0  0  0 
  5  3  1  0  0  0  0 
  6  4  2  0  0  0  0 
  7  5  1  0  0  0  0 
  5  8  2  0  0  0  0 
  8  6  1  0  0  0  0 
  7  9  1  0  0  0  0 
 10  8  1  0  0  0  0 
  9 11  2  0  0  0  0 
  9 12  1  0  0  0  0 
 10 11  1  0  0  0  0 
 11 13  1  0  0  0  0 
 12 14  2  0  0  0  0 
 13 15  2  0  0  0  0 
 16 14  1  0  0  0  0 
 14 15  1  0  0  0  0 
M  END
> <Name>
2,8-DIBROMODIBENZO-P-DIOXIN

> <Source>
Chemidplus3DMolFile

> <Tox>
-5.893

> <CAS>
105836-96-2

$$$$

  CDK

 15 17  0  0  0  0  0  0  0  0999 V2000
   -4.9842   -1.0790    0.0001 Br  0  0  0  0  0  0  0  0  0  0  0  0
   -3.2663   -0.2903    0.0000 C   0  0  0  0  0  0  0  0  0  0  0  0
   -2.1291   -1.0984   -0.0001 C   0  0  0  0  0  0  0  0  0  0  0  0
   -3.1383    1.0999    0.0002 C   0  0  0  0  0  0  0  0  0  0  0  0
   -0.8646   -0.5104   -0.0001 C   0  0  0  0  0  0  0  0  0  0  0  0
   -1.8725    1.6867    0.0002 C   0  0  0  0  0  0  0  0  0  0  0  0
    0.2251   -1.3438   -0.0002 O   0  0  0  0  0  0  0  0  0  0  0  0
   -0.7369    0.8777   -0.0001 C   0  0  0  0  0  0  0  0  0  0  0  0
    1.4488   -0.7236    0.0000 C   0  0  0  0  0  0  0  0  0  0  0  0
    0.4868    1.4980   -0.0002 O   0  0  0  0  0  0  0  0  0  0  0  0
    1.5767    0.6647   -0.0001 C   0  0  0  0  0  0  0  0  0  0  0  0
    2.5846   -1.5325    0.0001 C   0  0  0  0  0  0  0  0  0  0  0  0
    2.8411    1.2525   -0.0001 C   0  0  0  0  0  0  0  0  0  0  0  0
    3.8504   -0.9457    0.0002 C   0  0  0  0  0  0  0  0  0  0  0  0
    3.9784    0.4444    0.0001 C   0  0  0  0  0  0  0  0  0  0  0  0
  1  2  1  0  0  0  0 
  3  2  2  0  0  0  0 
  2  4  1  0  0  0  0 
  5  3  1  0  0  0  0 
  6  4  2  0  0  0  0 
  7  5  1  0  0  0  0 
  5  8  2  0  0  0  0 
  8  6  1  0  0  0  0 
  7  9  1  0  0  0  0 
 10  8  1  0  0  0  0 
  9 11  1  0  0  0  0 
  9 12  2  0  0  0  0 
 10 11  1  0  0  0  0 
 11 13  2  0  0  0  0 
 12 14  1  0  0  0  0 
 13 15  1  0  0  0  0 
 14 15  2  0  0  0  0 
M  END
> <Name>
2-MONOBROMODIBENZO-P-DIOXIN

> <Source>
Chemidplus3DMolFile

> <Tox>
-4.523

> <CAS>
105906-36-3

$$$$

  CDK

 31 33  0  0  0  0  0  0  0  0999 V2000
    1.5106   -1.3264    0.0000 C   0  0  0  0  0  0  0  0  0  0  0  0
    2.2251   -0.9139    0.0000 C   0  0  0  0  0  0  0  0  0  0  0  0
    0.7961   -0.9139    0.0000 C   0  0  0  0  0  0  0  0  0  0  0  0
    2.2251   -0.0889    0.0000 C   0  0  0  0  0  0  0  0  0  0  0  0
    0.7961   -0.0889    0.0000 C   0  0  0  0  0  0  0  0  0  0  0  0
    0.0817   -1.3264    0.0000 C   0  0  0  0  0  0  0  0  0  0  0  0
    2.9395    0.3236    0.0000 C   0  0  0  0  0  0  0  0  0  0  0  0
    1.5106    0.3236    0.0000 C   0  0  0  0  0  0  0  0  0  0  0  0
   -0.6328   -1.7389    0.0000 O   0  0  0  0  0  0  0  0  0  0  0  0
    2.9395    1.1486    0.0000 O   0  0  0  0  0  0  0  0  0  0  0  0
    3.6540   -0.0889    0.0000 O   0  0  0  0  0  0  0  0  0  0  0  0
   -1.3473   -1.3264    0.0000 N   0  0  0  0  0  0  0  0  0  0  0  0
    4.3685    0.3236    0.0000 C   0  0  0  0  0  0  0  0  0  0  0  0
   -2.0618   -1.7389    0.0000 C   0  0  0  0  0  0  0  0  0  0  0  0
    3.9560    1.0380    0.0000 C   0  0  0  0  0  0  0  0  0  0  0  0
    4.7810   -0.3909    0.0000 C   0  0  0  0  0  0  0  0  0  0  0  0
    5.0830    0.7361    0.0000 C   0  0  0  0  0  0  0  0  0  0  0  0
   -2.7762   -1.3264    0.0000 C   0  0  0  0  0  0  0  0  0  0  0  0
   -2.8625   -0.5060    0.0000 C   0  0  0  0  0  0  0  0  0  0  0  0
   -3.5299   -1.6620    0.0000 C   0  0  0  0  0  0  0  0  0  0  0  0
   -2.2494    0.0461    0.0000 O   0  0  0  0  0  0  0  0  0  0  0  0
   -3.6694   -0.3344    0.0000 N   0  0  0  0  0  0  0  0  0  0  0  0
   -4.0819   -1.0489    0.0000 N   0  0  0  0  0  0  0  0  0  0  0  0
   -3.7014   -2.4690    0.0000 C   0  0  0  0  0  0  0  0  0  0  0  0
   -2.4209    0.8530    0.0000 C   0  0  0  0  0  0  0  0  0  0  0  0
   -4.0050    0.4192    0.0000 C   0  0  0  0  0  0  0  0  0  0  0  0
   -1.8078    1.4051    0.0000 C   0  0  0  0  0  0  0  0  0  0  0  0
   -3.2055    1.1080    0.0000 C   0  0  0  0  0  0  0  0  0  0  0  0
   -1.9793    2.2120    0.0000 C   0  0  0  0  0  0  0  0  0  0  0  0
   -3.3770    1.9150    0.0000 C   0  0  0  0  0  0  0  0  0  0  0  0
   -2.7639    2.4670    0.0000 C   0  0  0  0  0  0  0  0  0  0  0  0
  1  2  1  0  0  0  0 
  1  3  2  0  0  0  0 
  2  4  2  0  0  0  0 
  5  3  1  0  0  0  0 
  3  6  1  0  0  0  0 
  4  7  1  0  0  0  0 
  4  8  1  0  0  0  0 
  8  5  2  0  0  0  0 
  6  9  1  0  0  0  0 
  7 10  2  0  0  0  0 
  7 11  1  0  0  0  0 
 12  9  1  0  0  0  0 
 11 13  1  0  0  0  0 
 12 14  2  0  0  0  0 
 13 15  1  0  0  0  0 
 13 16  1  0  0  0  0 
 13 17  1  0  0  0  0 
 14 18  1  0  0  0  0 
 18 19  2  0  0  0  0 
 18 20  1  0  0  0  0 
 19 21  1  0  0  0  0 
 19 22  1  0  0  0  0 
 23 20  2  0  0  0  0 
 20 24  1  0  0  0  0 
 21 25  1  0  0  0  0 
 22 26  1  0  0  0  0 
 22 23  1  0  0  0  0 
 25 27  1  0  0  0  0 
 25 28  2  0  0  0  0 
 27 29  2  0  0  0  0 
 30 28  1  0  0  0  0 
 29 31  1  0  0  0  0 
 31 30  2  0  0  0  0 
M  END
> <Name>
Fenpyroximate

> <Source>
Smiles

> <Tox>
-7.249

> <CAS>
111812-58-9

$$$$

  CDK

 30 32  0  0  0  0  0  0  0  0999 V2000
    0.0000    7.6957    0.0000 C   0  0  0  0  0  0  0  0  0  0  0  0
    0.0000    6.2965    0.0000 C   0  0  0  0  0  0  0  0  0  0  0  0
    1.2127    8.3953    0.0000 C   0  0  0  0  0  0  0  0  0  0  0  0
    1.2127    5.5969    0.0000 C   0  0  0  0  0  0  0  0  0  0  0  0
    2.4253    7.6957    0.0000 C   0  0  0  0  0  0  0  0  0  0  0  0
    2.4253    6.2965    0.0000 C   0  0  0  0  0  0  0  0  0  0  0  0
    3.6380    8.3953    0.0000 O   0  0  0  0  0  0  0  0  0  0  0  0
    4.8506    7.6957    0.0000 C   0  0  0  0  0  0  0  0  0  0  0  0
    4.8506    6.2965    0.0000 C   0  0  0  0  0  0  0  0  0  0  0  0
    6.0633    8.3953    0.0000 C   0  0  0  0  0  0  0  0  0  0  0  0
    6.0633    5.5969    0.0000 C   0  0  0  0  0  0  0  0  0  0  0  0
    7.2760    7.6957    0.0000 C   0  0  0  0  0  0  0  0  0  0  0  0
    7.2760    6.2965    0.0000 C   0  0  0  0  0  0  0  0  0  0  0  0
    8.4886    8.3953    0.0000 C   0  0  0  0  0  0  0  0  0  0  0  0
    9.7013    7.6957    0.0000 O   0  0  0  0  0  0  0  0  0  0  0  0
   10.9139    8.3953    0.0000 C   0  0  0  0  0  0  0  0  0  0  0  0
   12.1266    7.6957    0.0000 C   0  0  0  0  0  0  0  0  0  0  0  0
   13.3393    8.3953    0.0000 C   0  0  0  0  0  0  0  0  0  0  0  0
   12.1266    6.2965    0.0000 C   0  0  0  0  0  0  0  0  0  0  0  0
   13.3393    6.9961    0.0000 C   0  0  0  0  0  0  0  0  0  0  0  0
   10.9139    5.5969    0.0000 C   0  0  0  0  0  0  0  0  0  0  0  0
   13.3393    5.5969    0.0000 C   0  0  0  0  0  0  0  0  0  0  0  0
   10.9139    4.1977    0.0000 C   0  0  0  0  0  0  0  0  0  0  0  0
   13.3393    4.1977    0.0000 C   0  0  0  0  0  0  0  0  0  0  0  0
   12.1266    3.4981    0.0000 C   0  0  0  0  0  0  0  0  0  0  0  0
   12.1266    2.0988    0.0000 O   0  0  0  0  0  0  0  0  0  0  0  0
   10.9139    1.3992    0.0000 C   0  0  0  0  0  0  0  0  0  0  0  0
   10.9139    0.0000    0.0000 F   0  0  0  0  0  0  0  0  0  0  0  0
    9.7013    2.0988    0.0000 F   0  0  0  0  0  0  0  0  0  0  0  0
    9.7013    0.6996    0.0000 Br  0  0  0  0  0  0  0  0  0  0  0  0
  1  2  2  0  0  0  0 
  1  3  1  0  0  0  0 
  2  4  1  0  0  0  0 
  5  3  2  0  0  0  0 
  4  6  2  0  0  0  0 
  6  5  1  0  0  0  0 
  5  7  1  0  0  0  0 
  7  8  1  0  0  0  0 
  8  9  2  0  0  0  0 
  8 10  1  0  0  0  0 
  9 11  1  0  0  0  0 
 12 10  2  0  0  0  0 
 11 13  2  0  0  0  0 
 13 12  1  0  0  0  0 
 12 14  1  0  0  0  0 
 14 15  1  0  0  0  0 
 15 16  1  0  0  0  0 
 16 17  1  0  0  0  0 
 17 18  1  0  0  0  0 
 17 19  1  0  0  0  0 
 17 20  1  0  0  0  0 
 19 21  2  0  0  0  0 
 19 22  1  0  0  0  0 
 21 23  1  0  0  0  0 
 24 22  2  0  0  0  0 
 23 25  2  0  0  0  0 
 25 24  1  0  0  0  0 
 25 26  1  0  0  0  0 
 26 27  1  0  0  0  0 
 27 28  1  0  0  0  0 
 27 29  1  0  0  0  0 
 27 30  1  0  0  0  0 
M  END
> <Name>
Halfenprox

> <Source>
IndexNet2DMolFile

> <Tox>
-8.234

> <CAS>
111872-58-3

$$$$

  CDK

 21 21  0  0  0  0  0  0  0  0999 V2000
    6.2205   -5.6364    0.0000 C   0  0  0  0  0  0  0  0  0  0  0  0
    5.9382   -6.9604    0.0000 O   0  0  0  0  0  0  0  0  0  0  0  0
    7.4861   -5.2373    0.0000 O   0  0  0  0  0  0  0  0  0  0  0  0
    5.2276   -4.7603    0.0000 C   0  0  0  0  0  0  0  0  0  0  0  0
    8.4693   -6.1232    0.0000 C   0  0  0  0  0  0  0  0  0  0  0  0
    3.9621   -5.1594    0.0000 S   0  0  0  0  0  0  0  0  0  0  0  0
    9.7348   -5.7241    0.0000 C   0  0  0  0  0  0  0  0  0  0  0  0
    2.9691   -4.2736    0.0000 C   0  0  0  0  0  0  0  0  0  0  0  0
    1.7036   -4.6922    0.0000 N   0  0  0  0  0  0  0  0  0  0  0  0
    2.9691   -2.9496    0.0000 N   0  0  0  0  0  0  0  0  0  0  0  0
    0.9345   -3.6019    0.0000 N   0  0  0  0  0  0  0  0  0  0  0  0
    1.2947   -5.9577    0.0000 C   0  0  0  0  0  0  0  0  0  0  0  0
    1.7036   -2.5310    0.0000 C   0  0  0  0  0  0  0  0  0  0  0  0
    0.0000   -6.2303    0.0000 O   0  0  0  0  0  0  0  0  0  0  0  0
    2.1806   -6.9409    0.0000 N   0  0  0  0  0  0  0  0  0  0  0  0
    1.2947   -1.2655    0.0000 C   0  0  0  0  0  0  0  0  0  0  0  0
    1.7815   -8.2064    0.0000 C   0  0  0  0  0  0  0  0  0  0  0  0
    3.4948   -6.6683    0.0000 C   0  0  0  0  0  0  0  0  0  0  0  0
    0.0292   -1.6744    0.0000 C   0  0  0  0  0  0  0  0  0  0  0  0
    2.5700   -0.8567    0.0000 C   0  0  0  0  0  0  0  0  0  0  0  0
    0.8859   -0.0000    0.0000 C   0  0  0  0  0  0  0  0  0  0  0  0
  1  2  2  0  0  0  0 
  1  3  1  0  0  0  0 
  1  4  1  0  0  0  0 
  3  5  1  0  0  0  0 
  4  6  1  0  0  0  0 
  5  7  1  0  0  0  0 
  6  8  1  0  0  0  0 
  9  8  1  0  0  0  0 
 10  8  2  0  0  0  0 
  9 11  1  0  0  0  0 
  9 12  1  0  0  0  0 
 13 10  1  0  0  0  0 
 11 13  2  0  0  0  0 
 12 14  2  0  0  0  0 
 12 15  1  0  0  0  0 
 13 16  1  0  0  0  0 
 15 17  1  0  0  0  0 
 15 18  1  0  0  0  0 
 16 19  1  0  0  0  0 
 16 20  1  0  0  0  0 
 16 21  1  0  0  0  0 
M  END
> <Name>
Triazamate

> <Source>
DSSTox2DMolFile

> <Tox>
-6.921

> <CAS>
112143-82-5

$$$$

  CDK

 26 27  0  0  0  0  0  0  0  0999 V2000
    4.5538   -3.9122    0.0000 C   0  0  0  0  0  0  0  0  0  0  0  0
    4.5538   -2.3524    0.0000 O   0  0  0  0  0  0  0  0  0  0  0  0
    3.4216   -4.5790    0.0000 C   0  0  0  0  0  0  0  0  0  0  0  0
    5.7237   -4.6041    0.0000 N   0  0  0  0  0  0  0  0  0  0  0  0
    2.2769   -3.9122    0.0000 C   0  0  0  0  0  0  0  0  0  0  0  0
    3.4216   -5.8243    0.0000 C   0  0  0  0  0  0  0  0  0  0  0  0
    6.8936   -3.9626    0.0000 N   0  0  0  0  0  0  0  0  0  0  0  0
    5.7237   -5.9250    0.0000 C   0  0  0  0  0  0  0  0  0  0  0  0
    1.1699   -4.5790    0.0000 C   0  0  0  0  0  0  0  0  0  0  0  0
    2.2769   -6.4910    0.0000 C   0  0  0  0  0  0  0  0  0  0  0  0
    6.8936   -2.6291    0.0000 C   0  0  0  0  0  0  0  0  0  0  0  0
    7.0571   -5.9250    0.0000 C   0  0  0  0  0  0  0  0  0  0  0  0
    4.3903   -5.9250    0.0000 C   0  0  0  0  0  0  0  0  0  0  0  0
    5.7237   -7.2584    0.0000 C   0  0  0  0  0  0  0  0  0  0  0  0
    1.1699   -5.8243    0.0000 C   0  0  0  0  0  0  0  0  0  0  0  0
    0.0000   -3.9122    0.0000 C   0  0  0  0  0  0  0  0  0  0  0  0
    2.2769   -7.8245    0.0000 C   0  0  0  0  0  0  0  0  0  0  0  0
    5.5727   -1.8366    0.0000 O   0  0  0  0  0  0  0  0  0  0  0  0
    8.0383   -1.9498    0.0000 C   0  0  0  0  0  0  0  0  0  0  0  0
    8.0383   -0.6541    0.0000 C   0  0  0  0  0  0  0  0  0  0  0  0
    9.1328   -2.5788    0.0000 C   0  0  0  0  0  0  0  0  0  0  0  0
    9.1579   -0.0000    0.0000 C   0  0  0  0  0  0  0  0  0  0  0  0
   10.2901   -1.9498    0.0000 C   0  0  0  0  0  0  0  0  0  0  0  0
   10.2901   -0.6541    0.0000 C   0  0  0  0  0  0  0  0  0  0  0  0
   11.4348   -0.0000    0.0000 C   0  0  0  0  0  0  0  0  0  0  0  0
   12.5796   -0.6541    0.0000 C   0  0  0  0  0  0  0  0  0  0  0  0
  1  2  2  0  0  0  0 
  1  3  1  0  0  0  0 
  1  4  1  0  0  0  0 
  3  5  2  0  0  0  0 
  3  6  1  0  0  0  0 
  4  7  1  0  0  0  0 
  4  8  1  0  0  0  0 
  5  9  1  0  0  0  0 
  6 10  2  0  0  0  0 
  7 11  1  0  0  0  0 
  8 12  1  0  0  0  0 
  8 13  1  0  0  0  0 
  8 14  1  0  0  0  0 
  9 15  2  0  0  0  0 
  9 16  1  0  0  0  0 
 10 15  1  0  0  0  0 
 10 17  1  0  0  0  0 
 11 18  2  0  0  0  0 
 11 19  1  0  0  0  0 
 19 20  2  0  0  0  0 
 19 21  1  0  0  0  0 
 20 22  1  0  0  0  0 
 21 23  2  0  0  0  0 
 22 24  2  0  0  0  0 
 23 24  1  0  0  0  0 
 24 25  1  0  0  0  0 
 25 26  1  0  0  0  0 
M  END
> <Name>
TEBUFENOZIDE

> <Source>
DSSTox2DMolFile

> <Tox>
-7.648

> <CAS>
112410-23-8

$$$$

  CDK

 20 22  0  0  0  0  0  0  0  0999 V2000
    2.9557   -5.3930    0.0000 C   0  0  0  0  0  0  0  0  0  0  0  0
    4.0467   -4.6038    0.0000 C   0  0  0  0  0  0  0  0  0  0  0  0
    3.3735   -6.6619    0.0000 C   0  0  0  0  0  0  0  0  0  0  0  0
    5.1222   -5.3930    0.0000 O   0  0  0  0  0  0  0  0  0  0  0  0
    3.3735   -3.4664    0.0000 C   0  0  0  0  0  0  0  0  0  0  0  0
    4.7043   -3.4509    0.0000 C   0  0  0  0  0  0  0  0  0  0  0  0
    4.7043   -6.6619    0.0000 C   0  0  0  0  0  0  0  0  0  0  0  0
    2.5843   -7.7374    0.0000 Br  0  0  0  0  0  0  0  0  0  0  0  0
    2.0349   -3.4664    0.0000 N   0  0  0  0  0  0  0  0  0  0  0  0
    4.0312   -2.3135    0.0000 C   0  0  0  0  0  0  0  0  0  0  0  0
    6.0352   -3.4509    0.0000 C   0  0  0  0  0  0  0  0  0  0  0  0
    1.2535   -4.5419    0.0000 N   0  0  0  0  0  0  0  0  0  0  0  0
    1.2535   -2.3754    0.0000 C   0  0  0  0  0  0  0  0  0  0  0  0
    4.7043   -1.1374    0.0000 C   0  0  0  0  0  0  0  0  0  0  0  0
    6.6774   -2.3135    0.0000 C   0  0  0  0  0  0  0  0  0  0  0  0
    6.6774   -4.6038    0.0000 Cl  0  0  0  0  0  0  0  0  0  0  0  0
    0.0000   -4.1240    0.0000 C   0  0  0  0  0  0  0  0  0  0  0  0
    0.0000   -2.7932    0.0000 N   0  0  0  0  0  0  0  0  0  0  0  0
    6.0352   -1.1374    0.0000 C   0  0  0  0  0  0  0  0  0  0  0  0
    6.6774   -0.0000    0.0000 Cl  0  0  0  0  0  0  0  0  0  0  0  0
  1  2  1  0  0  0  0 
  1  3  1  0  0  0  0 
  2  4  1  0  0  0  0 
  2  5  1  0  0  0  0 
  2  6  1  0  0  0  0 
  3  7  1  0  0  0  0 
  3  8  1  0  0  0  0 
  4  7  1  0  0  0  0 
  5  9  1  0  0  0  0 
  6 10  1  0  0  0  0 
  6 11  2  0  0  0  0 
  9 12  1  0  0  0  0 
  9 13  1  0  0  0  0 
 10 14  2  0  0  0  0 
 11 15  1  0  0  0  0 
 11 16  1  0  0  0  0 
 12 17  2  0  0  0  0 
 13 18  2  0  0  0  0 
 14 19  1  0  0  0  0 
 15 19  2  0  0  0  0 
 17 18  1  0  0  0  0 
 19 20  1  0  0  0  0 
M  END
> <Name>
BROMUCONAZOLE

> <Source>
DSSTox2DMolFile

> <Tox>
-7.523

> <CAS>
116255-48-2

$$$$

  CDK

 25 27  0  0  0  0  0  0  0  0999 V2000
   11.8861   -1.9940    0.0000 C   0  0  0  0  0  0  0  0  0  0  0  0
   13.0330   -2.6587    0.0000 O   0  0  0  0  0  0  0  0  0  0  0  0
   11.8861   -0.6647    0.0000 O   0  0  0  0  0  0  0  0  0  0  0  0
   10.7261   -2.6587    0.0000 C   0  0  0  0  0  0  0  0  0  0  0  0
   13.0330   -0.0000    0.0000 C   0  0  0  0  0  0  0  0  0  0  0  0
    9.5792   -1.9940    0.0000 S   0  0  0  0  0  0  0  0  0  0  0  0
    8.4193   -2.6587    0.0000 C   0  0  0  0  0  0  0  0  0  0  0  0
    8.4193   -3.9881    0.0000 C   0  0  0  0  0  0  0  0  0  0  0  0
    7.2854   -1.9940    0.0000 C   0  0  0  0  0  0  0  0  0  0  0  0
    7.2854   -4.6528    0.0000 C   0  0  0  0  0  0  0  0  0  0  0  0
    9.5792   -4.6528    0.0000 Cl  0  0  0  0  0  0  0  0  0  0  0  0
    6.1385   -2.6587    0.0000 C   0  0  0  0  0  0  0  0  0  0  0  0
    6.1385   -3.9881    0.0000 C   0  0  0  0  0  0  0  0  0  0  0  0
    4.9786   -1.9940    0.0000 N   0  0  0  0  0  0  0  0  0  0  0  0
    4.9786   -4.6528    0.0000 F   0  0  0  0  0  0  0  0  0  0  0  0
    3.8317   -2.6587    0.0000 C   0  0  0  0  0  0  0  0  0  0  0  0
    2.6066   -2.1113    0.0000 N   0  0  0  0  0  0  0  0  0  0  0  0
    3.7014   -3.9881    0.0000 S   0  0  0  0  0  0  0  0  0  0  0  0
    1.7334   -3.1018    0.0000 N   0  0  0  0  0  0  0  0  0  0  0  0
    2.1895   -0.8602    0.0000 C   0  0  0  0  0  0  0  0  0  0  0  0
    2.3850   -4.2748    0.0000 C   0  0  0  0  0  0  0  0  0  0  0  0
    0.4171   -2.8282    0.0000 C   0  0  0  0  0  0  0  0  0  0  0  0
    0.9123   -0.5735    0.0000 C   0  0  0  0  0  0  0  0  0  0  0  0
    1.8377   -5.4739    0.0000 O   0  0  0  0  0  0  0  0  0  0  0  0
    0.0000   -1.5640    0.0000 C   0  0  0  0  0  0  0  0  0  0  0  0
  1  2  2  0  0  0  0 
  1  3  1  0  0  0  0 
  1  4  1  0  0  0  0 
  3  5  1  0  0  0  0 
  4  6  1  0  0  0  0 
  6  7  1  0  0  0  0 
  7  8  2  0  0  0  0 
  7  9  1  0  0  0  0 
  8 10  1  0  0  0  0 
  8 11  1  0  0  0  0 
  9 12  2  0  0  0  0 
 10 13  2  0  0  0  0 
 12 13  1  0  0  0  0 
 12 14  1  0  0  0  0 
 13 15  1  0  0  0  0 
 14 16  2  0  0  0  0 
 17 16  1  0  0  0  0 
 18 16  1  0  0  0  0 
 17 19  1  0  0  0  0 
 17 20  1  0  0  0  0 
 18 21  1  0  0  0  0 
 19 22  1  0  0  0  0 
 19 21  1  0  0  0  0 
 20 23  1  0  0  0  0 
 21 24  2  0  0  0  0 
 22 25  1  0  0  0  0 
 25 23  1  0  0  0  0 
M  END
> <Name>
Fluthiacet-methyl

> <Source>
DSSTox2DMolFile

> <Tox>
-8.480

> <CAS>
117337-19-6

$$$$

  CDK

 26 27  0  0  0  0  0  0  0  0999 V2000
    2.9844   -2.3875    0.0000 N   0  0  0  0  0  0  0  0  0  0  0  0
    2.2767   -3.5642    0.0000 C   0  0  0  0  0  0  0  0  0  0  0  0
    4.3487   -2.3875    0.0000 C   0  0  0  0  0  0  0  0  0  0  0  0
    2.9844   -4.7750    0.0000 C   0  0  0  0  0  0  0  0  0  0  0  0
    1.1255   -3.5642    0.0000 C   0  0  0  0  0  0  0  0  0  0  0  0
    5.0564   -3.5642    0.0000 C   0  0  0  0  0  0  0  0  0  0  0  0
    5.0223   -1.1596    0.0000 C   0  0  0  0  0  0  0  0  0  0  0  0
    4.3487   -4.7750    0.0000 C   0  0  0  0  0  0  0  0  0  0  0  0
    1.9867   -5.7556    0.0000 C   0  0  0  0  0  0  0  0  0  0  0  0
    0.0512   -3.5642    0.0000 F   0  0  0  0  0  0  0  0  0  0  0  0
    1.0744   -2.4387    0.0000 F   0  0  0  0  0  0  0  0  0  0  0  0
    1.1255   -4.4936    0.0000 F   0  0  0  0  0  0  0  0  0  0  0  0
    6.4377   -3.5642    0.0000 C   0  0  0  0  0  0  0  0  0  0  0  0
    4.3146   -0.0000    0.0000 F   0  0  0  0  0  0  0  0  0  0  0  0
    6.3866   -1.1596    0.0000 F   0  0  0  0  0  0  0  0  0  0  0  0
    5.0223   -5.9773    0.0000 C   0  0  0  0  0  0  0  0  0  0  0  0
    2.2084   -7.0858    0.0000 N   0  0  0  0  0  0  0  0  0  0  0  0
    0.6310   -5.4913    0.0000 S   0  0  0  0  0  0  0  0  0  0  0  0
    7.1540   -4.7750    0.0000 O   0  0  0  0  0  0  0  0  0  0  0  0
    7.1540   -2.3875    0.0000 O   0  0  0  0  0  0  0  0  0  0  0  0
    4.6812   -7.3160    0.0000 C   0  0  0  0  0  0  0  0  0  0  0  0
    0.9806   -7.7338    0.0000 C   0  0  0  0  0  0  0  0  0  0  0  0
    0.0000   -6.7362    0.0000 C   0  0  0  0  0  0  0  0  0  0  0  0
    8.5268   -2.3875    0.0000 C   0  0  0  0  0  0  0  0  0  0  0  0
    3.5130   -7.7850    0.0000 C   0  0  0  0  0  0  0  0  0  0  0  0
    5.6533   -8.2625    0.0000 C   0  0  0  0  0  0  0  0  0  0  0  0
  1  2  1  0  0  0  0 
  1  3  2  0  0  0  0 
  2  4  2  0  0  0  0 
  2  5  1  0  0  0  0 
  3  6  1  0  0  0  0 
  3  7  1  0  0  0  0 
  4  8  1  0  0  0  0 
  4  9  1  0  0  0  0 
  5 10  1  0  0  0  0 
  5 11  1  0  0  0  0 
  5 12  1  0  0  0  0 
  6  8  2  0  0  0  0 
  6 13  1  0  0  0  0 
  7 14  1  0  0  0  0 
  7 15  1  0  0  0  0 
  8 16  1  0  0  0  0 
 17  9  2  0  0  0  0 
 18  9  1  0  0  0  0 
 13 19  2  0  0  0  0 
 13 20  1  0  0  0  0 
 16 21  1  0  0  0  0 
 17 22  1  0  0  0  0 
 18 23  1  0  0  0  0 
 20 24  1  0  0  0  0 
 21 25  1  0  0  0  0 
 21 26  1  0  0  0  0 
 22 23  1  0  0  0  0 
M  END
> <Name>
Thiazopyr

> <Source>
DSSTox2DMolFile

> <Tox>
-5.648

> <CAS>
117718-60-2

$$$$

  CDK

 21 22  0  0  0  0  0  0  0  0999 V2000
    9.5118   -0.8143    0.0000 N   0  0  0  0  0  0  0  0  0  0  0  0
    8.2609   -0.2950    0.0000 C   0  0  0  0  0  0  0  0  0  0  0  0
   10.5739   -0.0000    0.0000 C   0  0  0  0  0  0  0  0  0  0  0  0
    9.6652   -2.1478    0.0000 C   0  0  0  0  0  0  0  0  0  0  0  0
    7.1988   -1.1093    0.0000 C   0  0  0  0  0  0  0  0  0  0  0  0
   11.8012   -0.5193    0.0000 C   0  0  0  0  0  0  0  0  0  0  0  0
   10.9161   -2.6671    0.0000 C   0  0  0  0  0  0  0  0  0  0  0  0
    5.9242   -0.6963    0.0000 O   0  0  0  0  0  0  0  0  0  0  0  0
    7.1988   -2.4547    0.0000 C   0  0  0  0  0  0  0  0  0  0  0  0
   11.0696   -3.9888    0.0000 C   0  0  0  0  0  0  0  0  0  0  0  0
    5.3578   -1.7820    0.0000 C   0  0  0  0  0  0  0  0  0  0  0  0
    5.9242   -2.8559    0.0000 O   0  0  0  0  0  0  0  0  0  0  0  0
    4.6851   -2.9385    0.0000 C   0  0  0  0  0  0  0  0  0  0  0  0
    4.6851   -0.6137    0.0000 C   0  0  0  0  0  0  0  0  0  0  0  0
    3.3398   -2.9385    0.0000 C   0  0  0  0  0  0  0  0  0  0  0  0
    3.3398   -0.6137    0.0000 C   0  0  0  0  0  0  0  0  0  0  0  0
    2.6789   -1.7820    0.0000 C   0  0  0  0  0  0  0  0  0  0  0  0
    1.3453   -1.7820    0.0000 C   0  0  0  0  0  0  0  0  0  0  0  0
    1.3453   -0.4366    0.0000 C   0  0  0  0  0  0  0  0  0  0  0  0
    1.3453   -3.1155    0.0000 C   0  0  0  0  0  0  0  0  0  0  0  0
    0.0000   -1.7820    0.0000 C   0  0  0  0  0  0  0  0  0  0  0  0
  1  2  1  0  0  0  0 
  1  3  1  0  0  0  0 
  1  4  1  0  0  0  0 
  2  5  1  0  0  0  0 
  3  6  1  0  0  0  0 
  4  7  1  0  0  0  0 
  8  5  1  0  0  0  0 
  5  9  1  0  0  0  0 
  7 10  1  0  0  0  0 
  8 11  1  0  0  0  0 
  9 12  1  0  0  0  0 
 12 11  1  0  0  0  0 
 11 13  1  0  0  0  0 
 11 14  1  0  0  0  0 
 13 15  1  0  0  0  0 
 16 14  1  0  0  0  0 
 15 17  1  0  0  0  0 
 17 16  1  0  0  0  0 
 17 18  1  0  0  0  0 
 18 19  1  0  0  0  0 
 18 20  1  0  0  0  0 
 18 21  1  0  0  0  0 
M  END
> <Name>
KWG 4168

> <Source>
DSSTox2DMolFile

> <Tox>
-3.893

> <CAS>
118134-30-8

$$$$

  CDK

 31 33  0  0  0  0  0  0  0  0999 V2000
    2.7984   10.8673    0.0000 N   0  0  0  0  0  0  0  0  0  0  0  0
    2.0988    9.6546    0.0000 C   0  0  0  0  0  0  0  0  0  0  0  0
    2.2388   12.1732    0.0000 N   0  0  0  0  0  0  0  0  0  0  0  0
    4.1977   11.0072    0.0000 C   0  0  0  0  0  0  0  0  0  0  0  0
    2.7984    8.4420    0.0000 C   0  0  0  0  0  0  0  0  0  0  0  0
    0.6996    9.6546    0.0000 C   0  0  0  0  0  0  0  0  0  0  0  0
    3.2649   13.1061    0.0000 C   0  0  0  0  0  0  0  0  0  0  0  0
    4.4775   12.4064    0.0000 N   0  0  0  0  0  0  0  0  0  0  0  0
    5.1305    9.9811    0.0000 C   0  0  0  0  0  0  0  0  0  0  0  0
    2.0988    7.2293    0.0000 C   0  0  0  0  0  0  0  0  0  0  0  0
    0.0000    8.4420    0.0000 C   0  0  0  0  0  0  0  0  0  0  0  0
    3.1249   14.5053    0.0000 C   0  0  0  0  0  0  0  0  0  0  0  0
    6.5297   10.2610    0.0000 C   0  0  0  0  0  0  0  0  0  0  0  0
    4.7107    8.6752    0.0000 C   0  0  0  0  0  0  0  0  0  0  0  0
    2.7984    6.0167    0.0000 C   0  0  0  0  0  0  0  0  0  0  0  0
    0.6996    7.2293    0.0000 C   0  0  0  0  0  0  0  0  0  0  0  0
    1.8656   15.0650    0.0000 O   0  0  0  0  0  0  0  0  0  0  0  0
    4.2910   15.2982    0.0000 N   0  0  0  0  0  0  0  0  0  0  0  0
    7.4625    9.2349    0.0000 C   0  0  0  0  0  0  0  0  0  0  0  0
    5.6435    7.6024    0.0000 C   0  0  0  0  0  0  0  0  0  0  0  0
    2.0988    4.8040    0.0000 O   0  0  0  0  0  0  0  0  0  0  0  0
    0.0000    6.0167    0.0000 Cl  0  0  0  0  0  0  0  0  0  0  0  0
    6.9961    7.8823    0.0000 C   0  0  0  0  0  0  0  0  0  0  0  0
    2.7984    3.5913    0.0000 C   0  0  0  0  0  0  0  0  0  0  0  0
    2.0988    2.3787    0.0000 C   0  0  0  0  0  0  0  0  0  0  0  0
    1.0727    1.4925    0.0000 F   0  0  0  0  0  0  0  0  0  0  0  0
    1.0261    3.2649    0.0000 F   0  0  0  0  0  0  0  0  0  0  0  0
    2.7984    1.1660    0.0000 C   0  0  0  0  0  0  0  0  0  0  0  0
    3.9178    0.3265    0.0000 F   0  0  0  0  0  0  0  0  0  0  0  0
    2.1455    0.0000    0.0000 F   0  0  0  0  0  0  0  0  0  0  0  0
    3.8712    2.0988    0.0000 F   0  0  0  0  0  0  0  0  0  0  0  0
  1  2  1  0  0  0  0 
  1  3  1  0  0  0  0 
  1  4  1  0  0  0  0 
  2  5  2  0  0  0  0 
  2  6  1  0  0  0  0 
  3  7  2  0  0  0  0 
  8  4  2  0  0  0  0 
  4  9  1  0  0  0  0 
  5 10  1  0  0  0  0 
 11  6  2  0  0  0  0 
  7 12  1  0  0  0  0 
  7  8  1  0  0  0  0 
  9 13  2  0  0  0  0 
  9 14  1  0  0  0  0 
 10 15  1  0  0  0  0 
 10 16  2  0  0  0  0 
 16 11  1  0  0  0  0 
 12 17  2  0  0  0  0 
 12 18  1  0  0  0  0 
 13 19  1  0  0  0  0 
 20 14  2  0  0  0  0 
 15 21  1  0  0  0  0 
 16 22  1  0  0  0  0 
 19 23  2  0  0  0  0 
 23 20  1  0  0  0  0 
 21 24  1  0  0  0  0 
 24 25  1  0  0  0  0 
 25 26  1  0  0  0  0 
 25 27  1  0  0  0  0 
 25 28  1  0  0  0  0 
 28 29  1  0  0  0  0 
 28 30  1  0  0  0  0 
 28 31  1  0  0  0  0 
M  END
> <Name>
Flupoxam

> <Source>
IndexNet2DMolFile

> <Tox>
-6.824

> <CAS>
119126-15-7

$$$$

  CDK

 27 30  0  0  0  0  0  0  0  0999 V2000
    4.1368   -7.9233    0.0000 C   0  0  0  0  0  0  0  0  0  0  0  0
    5.3078   -7.2777    0.0000 C   0  0  0  0  0  0  0  0  0  0  0  0
    3.4145   -6.7852    0.0000 C   0  0  0  0  0  0  0  0  0  0  0  0
    5.2640   -8.6894    0.0000 O   0  0  0  0  0  0  0  0  0  0  0  0
    3.1299   -8.8098    0.0000 O   0  0  0  0  0  0  0  0  0  0  0  0
    6.4131   -7.9233    0.0000 C   0  0  0  0  0  0  0  0  0  0  0  0
    5.3078   -5.9644    0.0000 C   0  0  0  0  0  0  0  0  0  0  0  0
    2.0903   -6.7961    0.0000 N   0  0  0  0  0  0  0  0  0  0  0  0
    4.9028   -9.9917    0.0000 C   0  0  0  0  0  0  0  0  0  0  0  0
    3.5786   -9.9917    0.0000 C   0  0  0  0  0  0  0  0  0  0  0  0
    7.6279   -7.3433    0.0000 C   0  0  0  0  0  0  0  0  0  0  0  0
    6.4131   -9.2476    0.0000 Cl  0  0  0  0  0  0  0  0  0  0  0  0
    6.4569   -5.2968    0.0000 C   0  0  0  0  0  0  0  0  0  0  0  0
    1.2914   -7.8796    0.0000 N   0  0  0  0  0  0  0  0  0  0  0  0
    1.2914   -5.7455    0.0000 C   0  0  0  0  0  0  0  0  0  0  0  0
    5.7127  -10.9439    0.0000 C   0  0  0  0  0  0  0  0  0  0  0  0
    7.6279   -6.0191    0.0000 C   0  0  0  0  0  0  0  0  0  0  0  0
    0.0000   -7.5184    0.0000 C   0  0  0  0  0  0  0  0  0  0  0  0
    0.0000   -6.1286    0.0000 N   0  0  0  0  0  0  0  0  0  0  0  0
    8.7770   -5.2968    0.0000 O   0  0  0  0  0  0  0  0  0  0  0  0
    8.7770   -3.9836    0.0000 C   0  0  0  0  0  0  0  0  0  0  0  0
    7.6279   -3.2832    0.0000 C   0  0  0  0  0  0  0  0  0  0  0  0
    9.9261   -3.2832    0.0000 C   0  0  0  0  0  0  0  0  0  0  0  0
    7.6279   -1.9589    0.0000 C   0  0  0  0  0  0  0  0  0  0  0  0
    9.9261   -1.9589    0.0000 C   0  0  0  0  0  0  0  0  0  0  0  0
    8.7770   -1.3133    0.0000 C   0  0  0  0  0  0  0  0  0  0  0  0
    8.7770   -0.0000    0.0000 Cl  0  0  0  0  0  0  0  0  0  0  0  0
  1  2  1  0  0  0  0 
  1  3  1  0  0  0  0 
  1  4  1  0  0  0  0 
  1  5  1  0  0  0  0 
  2  6  2  0  0  0  0 
  2  7  1  0  0  0  0 
  3  8  1  0  0  0  0 
  4  9  1  0  0  0  0 
  5 10  1  0  0  0  0 
  6 11  1  0  0  0  0 
  6 12  1  0  0  0  0 
  7 13  2  0  0  0  0 
  8 14  1  0  0  0  0 
  8 15  1  0  0  0  0 
 10  9  1  0  0  0  0 
  9 16  1  0  0  0  0 
 11 17  2  0  0  0  0 
 17 13  1  0  0  0  0 
 14 18  2  0  0  0  0 
 19 15  2  0  0  0  0 
 17 20  1  0  0  0  0 
 19 18  1  0  0  0  0 
 20 21  1  0  0  0  0 
 21 22  1  0  0  0  0 
 21 23  2  0  0  0  0 
 22 24  2  0  0  0  0 
 23 25  1  0  0  0  0 
 26 24  1  0  0  0  0 
 26 25  2  0  0  0  0 
 26 27  1  0  0  0  0 
M  END
> <Name>
Difenoconazole

> <Source>
DSSTox2DMolFile

> <Tox>
-9.602

> <CAS>
119446-68-3

$$$$

  CDK

 26 27  0  0  0  0  0  0  0  0999 V2000
    4.4657   -2.3106    0.0000 N   0  0  0  0  0  0  0  0  0  0  0  0
    5.7988   -2.3106    0.0000 C   0  0  0  0  0  0  0  0  0  0  0  0
    3.6770   -3.3882    0.0000 C   0  0  0  0  0  0  0  0  0  0  0  0
    3.6770   -1.2331    0.0000 N   0  0  0  0  0  0  0  0  0  0  0  0
    6.4653   -1.1553    0.0000 C   0  0  0  0  0  0  0  0  0  0  0  0
    6.4653   -3.4659    0.0000 C   0  0  0  0  0  0  0  0  0  0  0  0
    2.4217   -2.9660    0.0000 C   0  0  0  0  0  0  0  0  0  0  0  0
    4.0880   -4.6546    0.0000 N   0  0  0  0  0  0  0  0  0  0  0  0
    2.4217   -1.6552    0.0000 C   0  0  0  0  0  0  0  0  0  0  0  0
    7.7873   -1.1553    0.0000 C   0  0  0  0  0  0  0  0  0  0  0  0
    5.7988   -0.0000    0.0000 Cl  0  0  0  0  0  0  0  0  0  0  0  0
    7.7873   -3.4659    0.0000 C   0  0  0  0  0  0  0  0  0  0  0  0
    5.7988   -4.6101    0.0000 Cl  0  0  0  0  0  0  0  0  0  0  0  0
    1.3331   -3.7548    0.0000 S   0  0  0  0  0  0  0  0  0  0  0  0
    1.3442   -0.8665    0.0000 C   0  0  0  0  0  0  0  0  0  0  0  0
    8.4649   -2.3106    0.0000 C   0  0  0  0  0  0  0  0  0  0  0  0
    1.3331   -5.0878    0.0000 C   0  0  0  0  0  0  0  0  0  0  0  0
    0.1888   -3.0994    0.0000 O   0  0  0  0  0  0  0  0  0  0  0  0
    0.2777   -0.0778    0.0000 N   0  0  0  0  0  0  0  0  0  0  0  0
    9.7980   -2.3106    0.0000 C   0  0  0  0  0  0  0  0  0  0  0  0
    2.6661   -5.0878    0.0000 F   0  0  0  0  0  0  0  0  0  0  0  0
    1.3331   -6.4209    0.0000 F   0  0  0  0  0  0  0  0  0  0  0  0
    0.0000   -5.0878    0.0000 F   0  0  0  0  0  0  0  0  0  0  0  0
    9.7980   -0.9776    0.0000 F   0  0  0  0  0  0  0  0  0  0  0  0
   11.1088   -2.3106    0.0000 F   0  0  0  0  0  0  0  0  0  0  0  0
    9.7980   -3.6437    0.0000 F   0  0  0  0  0  0  0  0  0  0  0  0
  1  2  1  0  0  0  0 
  1  3  1  0  0  0  0 
  1  4  1  0  0  0  0 
  2  5  2  0  0  0  0 
  2  6  1  0  0  0  0 
  3  7  2  0  0  0  0 
  3  8  1  0  0  0  0 
  4  9  2  0  0  0  0 
  5 10  1  0  0  0  0 
  5 11  1  0  0  0  0 
  6 12  2  0  0  0  0 
  6 13  1  0  0  0  0 
  7 14  1  0  0  0  0 
  7  9  1  0  0  0  0 
  9 15  1  0  0  0  0 
 10 16  2  0  0  0  0 
 12 16  1  0  0  0  0 
 14 17  1  0  0  0  0 
 14 18  2  0  0  0  0 
 15 19  3  0  0  0  0 
 16 20  1  0  0  0  0 
 17 21  1  0  0  0  0 
 17 22  1  0  0  0  0 
 17 23  1  0  0  0  0 
 20 24  1  0  0  0  0 
 20 25  1  0  0  0  0 
 20 26  1  0  0  0  0 
M  END
> <Name>
Fipronil

> <Source>
DSSTox2DMolFile

> <Tox>
-8.556

> <CAS>
120068-37-3

$$$$

  CDK

 29 31  0  0  0  0  0  0  0  0999 V2000
    3.6380    2.9850    0.0000 C   0  0  0  0  0  0  0  0  0  0  0  0
    2.4253    3.6846    0.0000 N   0  0  0  0  0  0  0  0  0  0  0  0
    3.6380    1.5858    0.0000 O   0  0  0  0  0  0  0  0  0  0  0  0
    4.8506    3.6846    0.0000 N   0  0  0  0  0  0  0  0  0  0  0  0
    2.4253    5.0838    0.0000 C   0  0  0  0  0  0  0  0  0  0  0  0
    6.0633    2.9850    0.0000 S   0  0  0  0  0  0  0  0  0  0  0  0
    3.6380    5.7835    0.0000 N   0  0  0  0  0  0  0  0  0  0  0  0
    1.2127    5.7835    0.0000 N   0  0  0  0  0  0  0  0  0  0  0  0
    7.2760    2.2854    0.0000 C   0  0  0  0  0  0  0  0  0  0  0  0
    5.3637    1.8190    0.0000 O   0  0  0  0  0  0  0  0  0  0  0  0
    6.7629    4.1977    0.0000 O   0  0  0  0  0  0  0  0  0  0  0  0
    3.6380    7.1827    0.0000 C   0  0  0  0  0  0  0  0  0  0  0  0
    1.2127    7.1827    0.0000 C   0  0  0  0  0  0  0  0  0  0  0  0
    8.5353    2.8917    0.0000 C   0  0  0  0  0  0  0  0  0  0  0  0
    7.4159    0.9328    0.0000 N   0  0  0  0  0  0  0  0  0  0  0  0
    2.4253    7.8823    0.0000 C   0  0  0  0  0  0  0  0  0  0  0  0
    4.8506    7.8823    0.0000 O   0  0  0  0  0  0  0  0  0  0  0  0
    0.0000    7.8823    0.0000 O   0  0  0  0  0  0  0  0  0  0  0  0
    9.4681    1.8190    0.0000 C   0  0  0  0  0  0  0  0  0  0  0  0
    8.8151    4.2443    0.0000 C   0  0  0  0  0  0  0  0  0  0  0  0
    8.7685    0.6063    0.0000 N   0  0  0  0  0  0  0  0  0  0  0  0
    6.3898    0.0000    0.0000 C   0  0  0  0  0  0  0  0  0  0  0  0
    4.8506    9.2815    0.0000 C   0  0  0  0  0  0  0  0  0  0  0  0
    0.0000    9.2815    0.0000 C   0  0  0  0  0  0  0  0  0  0  0  0
    7.8823    5.2704    0.0000 N   0  0  0  0  0  0  0  0  0  0  0  0
   10.1210    4.8040    0.0000 N   0  0  0  0  0  0  0  0  0  0  0  0
    8.5819    6.4831    0.0000 N   0  0  0  0  0  0  0  0  0  0  0  0
    9.9811    6.2032    0.0000 N   0  0  0  0  0  0  0  0  0  0  0  0
   11.0072    7.1360    0.0000 C   0  0  0  0  0  0  0  0  0  0  0  0
  1  2  1  0  0  0  0 
  1  3  2  0  0  0  0 
  1  4  1  0  0  0  0 
  2  5  1  0  0  0  0 
  6  4  1  0  0  0  0 
  5  7  2  0  0  0  0 
  5  8  1  0  0  0  0 
  9  6  1  0  0  0  0 
  6 10  2  0  0  0  0 
  6 11  2  0  0  0  0 
  7 12  1  0  0  0  0 
 13  8  2  0  0  0  0 
  9 14  2  0  0  0  0 
  9 15  1  0  0  0  0 
 12 16  2  0  0  0  0 
 12 17  1  0  0  0  0 
 16 13  1  0  0  0  0 
 13 18  1  0  0  0  0 
 14 19  1  0  0  0  0 
 14 20  1  0  0  0  0 
 21 15  1  0  0  0  0 
 15 22  1  0  0  0  0 
 17 23  1  0  0  0  0 
 18 24  1  0  0  0  0 
 19 21  2  0  0  0  0 
 20 25  1  0  0  0  0 
 20 26  2  0  0  0  0 
 25 27  2  0  0  0  0 
 28 26  1  0  0  0  0 
 27 28  1  0  0  0  0 
 28 29  1  0  0  0  0 
M  END
> <Name>
Azimsulfuron

> <Source>
IndexNet2DMolFile

> <Tox>
-10.523

> <CAS>
120162-55-2

$$$$

  CDK

 23 23  0  0  0  0  0  0  0  0999 V2000
    3.6924    0.9410   -1.0582 S   0  0  0  0  0  0  0  0  0  0  0  0
    2.5058    1.0160   -1.8894 O   0  0  0  0  0  0  0  0  0  0  0  0
    3.9296    1.9415   -0.0355 O   0  0  0  0  0  0  0  0  0  0  0  0
    3.8181   -0.6452   -0.3649 N   0  0  0  0  0  0  0  0  0  0  0  0
    5.1072    0.9382   -2.1374 C   0  0  0  0  0  0  0  0  0  0  0  0
    3.1468   -0.9866    1.2081 S   0  0  0  0  0  0  0  0  0  0  0  0
    3.7602   -1.7784   -1.3349 C   0  0  0  0  0  0  0  0  0  0  0  0
    3.1336    0.2258    2.0051 O   0  0  0  0  0  0  0  0  0  0  0  0
    3.7757   -2.1888    1.7245 O   0  0  0  0  0  0  0  0  0  0  0  0
    1.5303   -1.3720    0.7828 N   0  0  0  0  0  0  0  0  0  0  0  0
    0.4552   -0.4256    0.6962 C   0  0  0  0  0  0  0  0  0  0  0  0
    0.6288    0.7653    0.9246 O   0  0  0  0  0  0  0  0  0  0  0  0
   -0.7310   -1.0379    0.3303 N   0  0  0  0  0  0  0  0  0  0  0  0
   -1.9975   -0.4385    0.1385 C   0  0  0  0  0  0  0  0  0  0  0  0
   -2.9937   -1.2639   -0.2176 N   0  0  0  0  0  0  0  0  0  0  0  0
   -2.0592    0.8876    0.3347 N   0  0  0  0  0  0  0  0  0  0  0  0
   -4.1873   -0.6594   -0.3920 C   0  0  0  0  0  0  0  0  0  0  0  0
   -3.2814    1.4259    0.1433 C   0  0  0  0  0  0  0  0  0  0  0  0
   -5.2412   -1.4548   -0.7565 O   0  0  0  0  0  0  0  0  0  0  0  0
   -4.3925    0.6947   -0.2242 C   0  0  0  0  0  0  0  0  0  0  0  0
   -3.4029    2.7775    0.3296 O   0  0  0  0  0  0  0  0  0  0  0  0
   -4.9716   -2.8428   -0.9151 C   0  0  0  0  0  0  0  0  0  0  0  0
   -2.2252    3.4805    0.7078 C   0  0  0  0  0  0  0  0  0  0  0  0
  1  2  2  0  0  0  0 
  1  3  2  0  0  0  0 
  1  4  1  0  0  0  0 
  1  5  1  0  0  0  0 
  6  4  1  0  0  0  0 
  4  7  1  0  0  0  0 
  6  8  2  0  0  0  0 
  6  9  2  0  0  0  0 
  6 10  1  0  0  0  0 
 10 11  1  0  0  0  0 
 12 11  2  0  0  0  0 
 13 11  1  0  0  0  0 
 13 14  1  0  0  0  0 
 15 14  1  0  0  0  0 
 16 14  2  0  0  0  0 
 15 17  2  0  0  0  0 
 16 18  1  0  0  0  0 
 19 17  1  0  0  0  0 
 17 20  1  0  0  0  0 
 21 18  1  0  0  0  0 
 18 20  2  0  0  0  0 
 19 22  1  0  0  0  0 
 21 23  1  0  0  0  0 
M  END
> <Name>
Amidosulfuron

> <Source>
Chemidplus3DMolFile

> <Tox>
-6.783

> <CAS>
120923-37-7

$$$$

  CDK

 17 19  0  0  0  0  0  0  0  0999 V2000
    6.8900   -1.7787    0.0000 C   0  0  0  0  0  0  0  0  0  0  0  0
    8.0227   -1.1327    0.0000 C   0  0  0  0  0  0  0  0  0  0  0  0
    5.7479   -1.1327    0.0000 N   0  0  0  0  0  0  0  0  0  0  0  0
    6.8900   -3.1548    0.0000 C   0  0  0  0  0  0  0  0  0  0  0  0
    9.3614   -1.1327    0.0000 C   0  0  0  0  0  0  0  0  0  0  0  0
    8.6967   -0.0000    0.0000 C   0  0  0  0  0  0  0  0  0  0  0  0
    4.5684   -1.7787    0.0000 C   0  0  0  0  0  0  0  0  0  0  0  0
    5.7479   -3.7820    0.0000 C   0  0  0  0  0  0  0  0  0  0  0  0
    3.4543   -1.1327    0.0000 N   0  0  0  0  0  0  0  0  0  0  0  0
    4.5684   -3.1548    0.0000 N   0  0  0  0  0  0  0  0  0  0  0  0
    5.7479   -5.1394    0.0000 C   0  0  0  0  0  0  0  0  0  0  0  0
    2.2655   -1.7787    0.0000 C   0  0  0  0  0  0  0  0  0  0  0  0
    2.2655   -3.1548    0.0000 C   0  0  0  0  0  0  0  0  0  0  0  0
    1.1327   -1.1327    0.0000 C   0  0  0  0  0  0  0  0  0  0  0  0
    1.1327   -3.7820    0.0000 C   0  0  0  0  0  0  0  0  0  0  0  0
    0.0000   -1.7787    0.0000 C   0  0  0  0  0  0  0  0  0  0  0  0
    0.0000   -3.1548    0.0000 C   0  0  0  0  0  0  0  0  0  0  0  0
  1  2  1  0  0  0  0 
  1  3  1  0  0  0  0 
  1  4  2  0  0  0  0 
  2  5  1  0  0  0  0 
  2  6  1  0  0  0  0 
  3  7  2  0  0  0  0 
  4  8  1  0  0  0  0 
  5  6  1  0  0  0  0 
  7  9  1  0  0  0  0 
  7 10  1  0  0  0  0 
  8 11  1  0  0  0  0 
  8 10  2  0  0  0  0 
  9 12  1  0  0  0  0 
 12 13  1  0  0  0  0 
 12 14  2  0  0  0  0 
 13 15  2  0  0  0  0 
 14 16  1  0  0  0  0 
 15 17  1  0  0  0  0 
 16 17  2  0  0  0  0 
M  END
> <Name>
CGA 219417 (CYPRODINIL)

> <Source>
DSSTox2DMolFile

> <Tox>
-5.434

> <CAS>
121552-61-2

$$$$

  CDK

 17 18  0  0  0  0  0  0  0  0999 V2000
    3.2667    5.5533    0.0000 C   0  0  0  0  0  0  0  0  0  0  0  0
    3.2667    4.1533    0.0000 C   0  0  0  0  0  0  0  0  0  0  0  0
    4.6200    5.9733    0.0000 O   0  0  0  0  0  0  0  0  0  0  0  0
    2.1467    6.3933    0.0000 C   0  0  0  0  0  0  0  0  0  0  0  0
    4.6200    3.7333    0.0000 N   0  0  0  0  0  0  0  0  0  0  0  0
    5.4133    4.8533    0.0000 C   0  0  0  0  0  0  0  0  0  0  0  0
    2.1467    7.7933    0.0000 C   0  0  0  0  0  0  0  0  0  0  0  0
    0.8400    5.9267    0.0000 O   0  0  0  0  0  0  0  0  0  0  0  0
    5.0400    2.3800    0.0000 C   0  0  0  0  0  0  0  0  0  0  0  0
    6.6267    4.1067    0.0000 C   0  0  0  0  0  0  0  0  0  0  0  0
    6.6267    5.5067    0.0000 C   0  0  0  0  0  0  0  0  0  0  0  0
    0.8400    8.2133    0.0000 C   0  0  0  0  0  0  0  0  0  0  0  0
    0.0000    7.0933    0.0000 C   0  0  0  0  0  0  0  0  0  0  0  0
    4.1067    1.3533    0.0000 C   0  0  0  0  0  0  0  0  0  0  0  0
    6.4400    2.1000    0.0000 O   0  0  0  0  0  0  0  0  0  0  0  0
    4.5267    0.0000    0.0000 Cl  0  0  0  0  0  0  0  0  0  0  0  0
    2.7533    1.6333    0.0000 Cl  0  0  0  0  0  0  0  0  0  0  0  0
  1  2  1  0  0  0  0 
  1  3  1  0  0  0  0 
  1  4  1  0  0  0  0 
  2  5  1  0  0  0  0 
  6  3  1  0  0  0  0 
  4  7  2  0  0  0  0 
  4  8  1  0  0  0  0 
  5  6  1  0  0  0  0 
  5  9  1  0  0  0  0 
  6 10  1  0  0  0  0 
  6 11  1  0  0  0  0 
  7 12  1  0  0  0  0 
 13  8  1  0  0  0  0 
  9 14  1  0  0  0  0 
  9 15  2  0  0  0  0 
 12 13  2  0  0  0  0 
 14 16  1  0  0  0  0 
 14 17  1  0  0  0  0 
M  END
> <Name>
Furilazole

> <Source>
IndexNet2DMolFile

> <Tox>
-7.305

> <CAS>
121776-33-8

$$$$

  CDK

 27 29  0  0  0  0  0  0  0  0999 V2000
    3.3581    4.8506    0.0000 S   0  0  0  0  0  0  0  0  0  0  0  0
    4.5708    5.5503    0.0000 N   0  0  0  0  0  0  0  0  0  0  0  0
    2.6585    6.0633    0.0000 O   0  0  0  0  0  0  0  0  0  0  0  0
    4.0577    3.6380    0.0000 O   0  0  0  0  0  0  0  0  0  0  0  0
    2.1921    4.1044    0.0000 C   0  0  0  0  0  0  0  0  0  0  0  0
    5.7835    4.8506    0.0000 C   0  0  0  0  0  0  0  0  0  0  0  0
    0.8862    4.6174    0.0000 C   0  0  0  0  0  0  0  0  0  0  0  0
    2.0988    2.7052    0.0000 N   0  0  0  0  0  0  0  0  0  0  0  0
    6.9961    5.5503    0.0000 N   0  0  0  0  0  0  0  0  0  0  0  0
    5.7835    3.4514    0.0000 O   0  0  0  0  0  0  0  0  0  0  0  0
    0.0000    3.4981    0.0000 N   0  0  0  0  0  0  0  0  0  0  0  0
    0.5130    5.9700    0.0000 Cl  0  0  0  0  0  0  0  0  0  0  0  0
    0.7463    2.3320    0.0000 C   0  0  0  0  0  0  0  0  0  0  0  0
    3.0783    1.7257    0.0000 C   0  0  0  0  0  0  0  0  0  0  0  0
    8.2088    4.8506    0.0000 C   0  0  0  0  0  0  0  0  0  0  0  0
    0.3731    0.9795    0.0000 C   0  0  0  0  0  0  0  0  0  0  0  0
    2.7052    0.3731    0.0000 C   0  0  0  0  0  0  0  0  0  0  0  0
    8.2088    3.4514    0.0000 N   0  0  0  0  0  0  0  0  0  0  0  0
    9.4214    5.5503    0.0000 N   0  0  0  0  0  0  0  0  0  0  0  0
    1.3526    0.0000    0.0000 C   0  0  0  0  0  0  0  0  0  0  0  0
    9.4214    2.7518    0.0000 C   0  0  0  0  0  0  0  0  0  0  0  0
   10.6341    4.8506    0.0000 C   0  0  0  0  0  0  0  0  0  0  0  0
   10.6341    3.4514    0.0000 C   0  0  0  0  0  0  0  0  0  0  0  0
    9.4214    1.3526    0.0000 O   0  0  0  0  0  0  0  0  0  0  0  0
   11.8468    5.5503    0.0000 O   0  0  0  0  0  0  0  0  0  0  0  0
    8.2088    0.6530    0.0000 C   0  0  0  0  0  0  0  0  0  0  0  0
   13.0594    4.8506    0.0000 C   0  0  0  0  0  0  0  0  0  0  0  0
  1  2  1  0  0  0  0 
  1  3  2  0  0  0  0 
  1  4  2  0  0  0  0 
  1  5  1  0  0  0  0 
  2  6  1  0  0  0  0 
  7  5  2  0  0  0  0 
  8  5  1  0  0  0  0 
  6  9  1  0  0  0  0 
  6 10  2  0  0  0  0 
 11  7  1  0  0  0  0 
  7 12  1  0  0  0  0 
 13  8  1  0  0  0  0 
 14  8  1  0  0  0  0 
  9 15  1  0  0  0  0 
 13 11  2  0  0  0  0 
 16 13  1  0  0  0  0 
 14 17  2  0  0  0  0 
 15 18  2  0  0  0  0 
 15 19  1  0  0  0  0 
 20 16  2  0  0  0  0 
 17 20  1  0  0  0  0 
 18 21  1  0  0  0  0 
 22 19  2  0  0  0  0 
 21 23  2  0  0  0  0 
 21 24  1  0  0  0  0 
 23 22  1  0  0  0  0 
 22 25  1  0  0  0  0 
 26 24  1  0  0  0  0 
 25 27  1  0  0  0  0 
M  END
> <Name>
IMAZOSULFURON

> <Source>
IndexNet2DMolFile

> <Tox>
-9.471

> <CAS>
122548-33-8

$$$$

  CDK

 23 24  0  0  0  0  0  0  0  0999 V2000
    1.8280   -0.8365    0.0000 C   0  0  0  0  0  0  0  0  0  0  0  0
    1.1567   -1.9725    0.0000 S   0  0  0  0  0  0  0  0  0  0  0  0
    0.4854   -3.1292    0.0000 O   0  0  0  0  0  0  0  0  0  0  0  0
    2.3030   -2.6645    0.0000 N   0  0  0  0  0  0  0  0  0  0  0  0
    0.0000   -1.3013    0.0000 O   0  0  0  0  0  0  0  0  0  0  0  0
    3.4597   -2.0035    0.0000 C   0  0  0  0  0  0  0  0  0  0  0  0
    3.4597   -0.6713    0.0000 C   0  0  0  0  0  0  0  0  0  0  0  0
    4.5957   -2.6748    0.0000 C   0  0  0  0  0  0  0  0  0  0  0  0
    4.6267   -0.0207    0.0000 C   0  0  0  0  0  0  0  0  0  0  0  0
    2.3237   -0.0000    0.0000 Cl  0  0  0  0  0  0  0  0  0  0  0  0
    5.7627   -2.0242    0.0000 C   0  0  0  0  0  0  0  0  0  0  0  0
    5.7627   -0.6919    0.0000 C   0  0  0  0  0  0  0  0  0  0  0  0
    6.8987   -2.6955    0.0000 N   0  0  0  0  0  0  0  0  0  0  0  0
    6.9194   -0.0310    0.0000 Cl  0  0  0  0  0  0  0  0  0  0  0  0
    8.1174   -2.1688    0.0000 N   0  0  0  0  0  0  0  0  0  0  0  0
    7.0330   -4.0174    0.0000 C   0  0  0  0  0  0  0  0  0  0  0  0
    8.9952   -3.1602    0.0000 C   0  0  0  0  0  0  0  0  0  0  0  0
    8.3239   -4.3065    0.0000 N   0  0  0  0  0  0  0  0  0  0  0  0
    6.0312   -4.9055    0.0000 O   0  0  0  0  0  0  0  0  0  0  0  0
   10.3274   -3.0259    0.0000 C   0  0  0  0  0  0  0  0  0  0  0  0
    8.8506   -5.5252    0.0000 C   0  0  0  0  0  0  0  0  0  0  0  0
    8.0657   -6.5992    0.0000 F   0  0  0  0  0  0  0  0  0  0  0  0
   10.1828   -5.6698    0.0000 F   0  0  0  0  0  0  0  0  0  0  0  0
  1  2  1  0  0  0  0 
  2  3  2  0  0  0  0 
  2  4  1  0  0  0  0 
  2  5  2  0  0  0  0 
  4  6  1  0  0  0  0 
  6  7  2  0  0  0  0 
  6  8  1  0  0  0  0 
  7  9  1  0  0  0  0 
  7 10  1  0  0  0  0 
  8 11  2  0  0  0  0 
  9 12  2  0  0  0  0 
 11 12  1  0  0  0  0 
 11 13  1  0  0  0  0 
 12 14  1  0  0  0  0 
 13 15  1  0  0  0  0 
 13 16  1  0  0  0  0 
 15 17  2  0  0  0  0 
 18 16  1  0  0  0  0 
 16 19  2  0  0  0  0 
 17 18  1  0  0  0  0 
 17 20  1  0  0  0  0 
 18 21  1  0  0  0  0 
 21 22  1  0  0  0  0 
 21 23  1  0  0  0  0 
M  END
> <Name>
Sulfentrazone

> <Source>
DSSTox2DMolFile

> <Tox>
-9.011

> <CAS>
122836-35-5

$$$$

  CDK

 28 29  0  0  0  0  0  0  0  0999 V2000
    2.3003   -4.6697    0.0000 C   0  0  0  0  0  0  0  0  0  0  0  0
    1.1502   -4.0026    0.0000 N   0  0  0  0  0  0  0  0  0  0  0  0
    3.4505   -4.0026    0.0000 S   0  0  0  0  0  0  0  0  0  0  0  0
    2.3003   -6.0039    0.0000 C   0  0  0  0  0  0  0  0  0  0  0  0
    0.0000   -4.6697    0.0000 C   0  0  0  0  0  0  0  0  0  0  0  0
    4.5892   -4.6697    0.0000 N   0  0  0  0  0  0  0  0  0  0  0  0
    4.1176   -2.8409    0.0000 O   0  0  0  0  0  0  0  0  0  0  0  0
    2.8064   -2.8409    0.0000 O   0  0  0  0  0  0  0  0  0  0  0  0
    1.1502   -6.6595    0.0000 C   0  0  0  0  0  0  0  0  0  0  0  0
    3.4505   -6.6595    0.0000 S   0  0  0  0  0  0  0  0  0  0  0  0
    0.0000   -6.0039    0.0000 C   0  0  0  0  0  0  0  0  0  0  0  0
    5.7509   -4.0026    0.0000 C   0  0  0  0  0  0  0  0  0  0  0  0
    4.5892   -6.0039    0.0000 C   0  0  0  0  0  0  0  0  0  0  0  0
    2.8064   -7.8212    0.0000 O   0  0  0  0  0  0  0  0  0  0  0  0
    4.1176   -7.7982    0.0000 O   0  0  0  0  0  0  0  0  0  0  0  0
    6.9010   -4.6697    0.0000 N   0  0  0  0  0  0  0  0  0  0  0  0
    5.7509   -2.6684    0.0000 O   0  0  0  0  0  0  0  0  0  0  0  0
    5.7509   -6.6595    0.0000 C   0  0  0  0  0  0  0  0  0  0  0  0
    8.0627   -4.0026    0.0000 C   0  0  0  0  0  0  0  0  0  0  0  0
    8.0627   -2.6684    0.0000 N   0  0  0  0  0  0  0  0  0  0  0  0
    9.2014   -4.6697    0.0000 N   0  0  0  0  0  0  0  0  0  0  0  0
    9.2014   -2.0013    0.0000 C   0  0  0  0  0  0  0  0  0  0  0  0
   10.3630   -4.0026    0.0000 C   0  0  0  0  0  0  0  0  0  0  0  0
   10.3630   -2.6684    0.0000 C   0  0  0  0  0  0  0  0  0  0  0  0
    9.2014   -0.6671    0.0000 O   0  0  0  0  0  0  0  0  0  0  0  0
   11.5017   -4.6697    0.0000 O   0  0  0  0  0  0  0  0  0  0  0  0
   10.3630   -0.0000    0.0000 C   0  0  0  0  0  0  0  0  0  0  0  0
   11.5017   -6.0039    0.0000 C   0  0  0  0  0  0  0  0  0  0  0  0
  1  2  2  0  0  0  0 
  1  3  1  0  0  0  0 
  1  4  1  0  0  0  0 
  2  5  1  0  0  0  0 
  3  6  1  0  0  0  0 
  3  7  2  0  0  0  0 
  3  8  2  0  0  0  0 
  4  9  2  0  0  0  0 
  4 10  1  0  0  0  0 
  5 11  2  0  0  0  0 
  6 12  1  0  0  0  0 
  9 11  1  0  0  0  0 
 10 13  1  0  0  0  0 
 10 14  2  0  0  0  0 
 10 15  2  0  0  0  0 
 12 16  1  0  0  0  0 
 12 17  2  0  0  0  0 
 13 18  1  0  0  0  0 
 16 19  1  0  0  0  0 
 19 20  1  0  0  0  0 
 19 21  2  0  0  0  0 
 20 22  2  0  0  0  0 
 21 23  1  0  0  0  0 
 22 24  1  0  0  0  0 
 22 25  1  0  0  0  0 
 23 24  2  0  0  0  0 
 23 26  1  0  0  0  0 
 25 27  1  0  0  0  0 
 26 28  1  0  0  0  0 
M  END
> <Name>
RIMSULFURON

> <Source>
DSSTox2DMolFile

> <Tox>
-7.947

> <CAS>
122931-48-0

$$$$

  CDK

 20 22  0  0  0  0  0  0  0  0999 V2000
    4.6084   -3.9817    0.0000 C   0  0  0  0  0  0  0  0  0  0  0  0
    3.4747   -4.6545    0.0000 C   0  0  0  0  0  0  0  0  0  0  0  0
    4.6084   -2.6544    0.0000 O   0  0  0  0  0  0  0  0  0  0  0  0
    5.7421   -4.6545    0.0000 C   0  0  0  0  0  0  0  0  0  0  0  0
    3.4747   -5.9817    0.0000 C   0  0  0  0  0  0  0  0  0  0  0  0
    2.3042   -3.9817    0.0000 C   0  0  0  0  0  0  0  0  0  0  0  0
    5.7421   -2.0000    0.0000 C   0  0  0  0  0  0  0  0  0  0  0  0
    5.7421   -5.9817    0.0000 C   0  0  0  0  0  0  0  0  0  0  0  0
    2.3042   -6.6545    0.0000 C   0  0  0  0  0  0  0  0  0  0  0  0
    4.6084   -6.6545    0.0000 N   0  0  0  0  0  0  0  0  0  0  0  0
    1.1521   -4.6545    0.0000 C   0  0  0  0  0  0  0  0  0  0  0  0
    2.3042   -2.6544    0.0000 Cl  0  0  0  0  0  0  0  0  0  0  0  0
    6.9126   -2.6544    0.0000 C   0  0  0  0  0  0  0  0  0  0  0  0
    5.7421   -0.6728    0.0000 C   0  0  0  0  0  0  0  0  0  0  0  0
    1.1521   -5.9817    0.0000 C   0  0  0  0  0  0  0  0  0  0  0  0
    8.0647   -2.0000    0.0000 C   0  0  0  0  0  0  0  0  0  0  0  0
    6.9126   -0.0000    0.0000 C   0  0  0  0  0  0  0  0  0  0  0  0
    0.0000   -6.6545    0.0000 Cl  0  0  0  0  0  0  0  0  0  0  0  0
    8.0647   -0.6728    0.0000 C   0  0  0  0  0  0  0  0  0  0  0  0
    9.2168   -0.0000    0.0000 F   0  0  0  0  0  0  0  0  0  0  0  0
  1  2  1  0  0  0  0 
  1  3  1  0  0  0  0 
  1  4  2  0  0  0  0 
  2  5  1  0  0  0  0 
  2  6  2  0  0  0  0 
  3  7  1  0  0  0  0 
  4  8  1  0  0  0  0 
  5  9  2  0  0  0  0 
  5 10  1  0  0  0  0 
  6 11  1  0  0  0  0 
  6 12  1  0  0  0  0 
  7 13  2  0  0  0  0 
  7 14  1  0  0  0  0 
  8 10  2  0  0  0  0 
  9 15  1  0  0  0  0 
 11 15  2  0  0  0  0 
 13 16  1  0  0  0  0 
 14 17  2  0  0  0  0 
 15 18  1  0  0  0  0 
 16 19  2  0  0  0  0 
 17 19  1  0  0  0  0 
 19 20  1  0  0  0  0 
M  END
> <Name>
Quinoline, 5,7-dichloro-4-(4-fluorophenoxy)-

> <Source>
DSSTox2DMolFile

> <Tox>
-6.824

> <CAS>
124495-18-7

$$$$

  CDK

 26 27  0  0  0  0  0  0  0  0999 V2000
    4.0271   -2.6608    0.0000 N   0  0  0  0  0  0  0  0  0  0  0  0
    5.1777   -1.9704    0.0000 C   0  0  0  0  0  0  0  0  0  0  0  0
    2.7615   -2.2293    0.0000 C   0  0  0  0  0  0  0  0  0  0  0  0
    4.0271   -3.9840    0.0000 N   0  0  0  0  0  0  0  0  0  0  0  0
    6.3283   -2.6608    0.0000 C   0  0  0  0  0  0  0  0  0  0  0  0
    5.1777   -0.6472    0.0000 C   0  0  0  0  0  0  0  0  0  0  0  0
    1.9704   -3.2936    0.0000 N   0  0  0  0  0  0  0  0  0  0  0  0
    2.3587   -0.9636    0.0000 O   0  0  0  0  0  0  0  0  0  0  0  0
    2.7615   -4.4011    0.0000 C   0  0  0  0  0  0  0  0  0  0  0  0
    7.4789   -1.9704    0.0000 C   0  0  0  0  0  0  0  0  0  0  0  0
    6.3283   -0.0000    0.0000 C   0  0  0  0  0  0  0  0  0  0  0  0
    4.0271   -0.0000    0.0000 F   0  0  0  0  0  0  0  0  0  0  0  0
    0.6472   -3.2936    0.0000 C   0  0  0  0  0  0  0  0  0  0  0  0
    2.3587   -5.6380    0.0000 C   0  0  0  0  0  0  0  0  0  0  0  0
    7.4789   -0.6472    0.0000 C   0  0  0  0  0  0  0  0  0  0  0  0
    8.6152   -2.6608    0.0000 C   0  0  0  0  0  0  0  0  0  0  0  0
    0.0000   -2.1574    0.0000 F   0  0  0  0  0  0  0  0  0  0  0  0
    0.0000   -4.4586    0.0000 F   0  0  0  0  0  0  0  0  0  0  0  0
    8.6152   -0.0000    0.0000 Cl  0  0  0  0  0  0  0  0  0  0  0  0
    9.7802   -1.9704    0.0000 C   0  0  0  0  0  0  0  0  0  0  0  0
   10.9164   -2.6608    0.0000 C   0  0  0  0  0  0  0  0  0  0  0  0
    9.7802   -0.6472    0.0000 Cl  0  0  0  0  0  0  0  0  0  0  0  0
   12.0814   -1.9704    0.0000 O   0  0  0  0  0  0  0  0  0  0  0  0
   10.9164   -3.9840    0.0000 O   0  0  0  0  0  0  0  0  0  0  0  0
   13.2176   -2.6608    0.0000 C   0  0  0  0  0  0  0  0  0  0  0  0
   14.3826   -1.9704    0.0000 C   0  0  0  0  0  0  0  0  0  0  0  0
  1  2  1  0  0  0  0 
  1  3  1  0  0  0  0 
  1  4  1  0  0  0  0 
  2  5  2  0  0  0  0 
  2  6  1  0  0  0  0 
  3  7  1  0  0  0  0 
  3  8  2  0  0  0  0 
  4  9  2  0  0  0  0 
  5 10  1  0  0  0  0 
  6 11  2  0  0  0  0 
  6 12  1  0  0  0  0 
  7 13  1  0  0  0  0 
  7  9  1  0  0  0  0 
  9 14  1  0  0  0  0 
 10 15  2  0  0  0  0 
 10 16  1  0  0  0  0 
 11 15  1  0  0  0  0 
 13 17  1  0  0  0  0 
 13 18  1  0  0  0  0 
 15 19  1  0  0  0  0 
 16 20  1  0  0  0  0 
 20 21  1  0  0  0  0 
 20 22  1  0  0  0  0 
 21 23  1  0  0  0  0 
 21 24  2  0  0  0  0 
 23 25  1  0  0  0  0 
 25 26  1  0  0  0  0 
M  END
> <Name>
Carfentrazone-ethyl

> <Source>
DSSTox2DMolFile

> <Tox>
-6.921

> <CAS>
128639-02-1

$$$$

  CDK

 18 20  0  0  0  0  0  0  0  0999 V2000
    2.2912   -1.9897    0.0000 C   0  0  0  0  0  0  0  0  0  0  0  0
    1.1396   -2.6590    0.0000 C   0  0  0  0  0  0  0  0  0  0  0  0
    2.2912   -0.6572    0.0000 C   0  0  0  0  0  0  0  0  0  0  0  0
    3.5574   -2.4057    0.0000 O   0  0  0  0  0  0  0  0  0  0  0  0
    1.1396   -3.9915    0.0000 C   0  0  0  0  0  0  0  0  0  0  0  0
    0.0000   -1.9897    0.0000 C   0  0  0  0  0  0  0  0  0  0  0  0
    3.5574   -0.2412    0.0000 O   0  0  0  0  0  0  0  0  0  0  0  0
    1.1396   -0.0000    0.0000 C   0  0  0  0  0  0  0  0  0  0  0  0
    4.3472   -1.3325    0.0000 C   0  0  0  0  0  0  0  0  0  0  0  0
    2.2309   -4.7632    0.0000 C   0  0  0  0  0  0  0  0  0  0  0  0
    0.0663   -4.7632    0.0000 C   0  0  0  0  0  0  0  0  0  0  0  0
    0.0000   -0.6572    0.0000 C   0  0  0  0  0  0  0  0  0  0  0  0
    5.4988   -1.9897    0.0000 F   0  0  0  0  0  0  0  0  0  0  0  0
    5.4988   -0.6572    0.0000 F   0  0  0  0  0  0  0  0  0  0  0  0
    1.8149   -6.0294    0.0000 C   0  0  0  0  0  0  0  0  0  0  0  0
    3.4971   -4.3593    0.0000 C   0  0  0  0  0  0  0  0  0  0  0  0
    0.4824   -6.0294    0.0000 N   0  0  0  0  0  0  0  0  0  0  0  0
    4.7452   -3.9432    0.0000 N   0  0  0  0  0  0  0  0  0  0  0  0
  1  2  2  0  0  0  0 
  1  3  1  0  0  0  0 
  1  4  1  0  0  0  0 
  2  5  1  0  0  0  0 
  2  6  1  0  0  0  0 
  3  7  1  0  0  0  0 
  3  8  2  0  0  0  0 
  4  9  1  0  0  0  0 
  5 10  1  0  0  0  0 
  5 11  2  0  0  0  0 
  6 12  2  0  0  0  0 
  7  9  1  0  0  0  0 
  8 12  1  0  0  0  0 
  9 13  1  0  0  0  0 
  9 14  1  0  0  0  0 
 10 15  2  0  0  0  0 
 10 16  1  0  0  0  0 
 11 17  1  0  0  0  0 
 15 17  1  0  0  0  0 
 16 18  3  0  0  0  0 
M  END
> <Name>
FLUDIOXONIL

> <Source>
DSSTox2DMolFile

> <Tox>
-8.533

> <CAS>
131341-86-1

$$$$

  CDK

 30 32  0  0  0  0  0  0  0  0999 V2000
   12.6941   -0.6506    0.0000 N   0  0  0  0  0  0  0  0  0  0  0  0
   12.6941   -1.9796    0.0000 C   0  0  0  0  0  0  0  0  0  0  0  0
   12.6941   -3.3223    0.0000 C   0  0  0  0  0  0  0  0  0  0  0  0
   11.5313   -3.9868    0.0000 C   0  0  0  0  0  0  0  0  0  0  0  0
   13.8431   -3.9868    0.0000 C   0  0  0  0  0  0  0  0  0  0  0  0
   11.5313   -5.3157    0.0000 C   0  0  0  0  0  0  0  0  0  0  0  0
   10.3823   -3.3223    0.0000 O   0  0  0  0  0  0  0  0  0  0  0  0
   13.8431   -5.3157    0.0000 C   0  0  0  0  0  0  0  0  0  0  0  0
   12.6941   -5.9802    0.0000 C   0  0  0  0  0  0  0  0  0  0  0  0
    9.2195   -3.9868    0.0000 C   0  0  0  0  0  0  0  0  0  0  0  0
    8.0705   -3.3223    0.0000 C   0  0  0  0  0  0  0  0  0  0  0  0
    9.2195   -5.3157    0.0000 N   0  0  0  0  0  0  0  0  0  0  0  0
    6.9077   -3.9868    0.0000 C   0  0  0  0  0  0  0  0  0  0  0  0
    8.0705   -5.9802    0.0000 C   0  0  0  0  0  0  0  0  0  0  0  0
    6.9077   -5.3157    0.0000 N   0  0  0  0  0  0  0  0  0  0  0  0
    5.7587   -3.3223    0.0000 O   0  0  0  0  0  0  0  0  0  0  0  0
    4.6236   -3.9868    0.0000 C   0  0  0  0  0  0  0  0  0  0  0  0
    3.4608   -3.3223    0.0000 C   0  0  0  0  0  0  0  0  0  0  0  0
    4.6236   -5.3157    0.0000 C   0  0  0  0  0  0  0  0  0  0  0  0
    2.3118   -3.9868    0.0000 C   0  0  0  0  0  0  0  0  0  0  0  0
    3.4608   -1.9796    0.0000 C   0  0  0  0  0  0  0  0  0  0  0  0
    3.4608   -5.9802    0.0000 C   0  0  0  0  0  0  0  0  0  0  0  0
    2.3118   -5.3157    0.0000 C   0  0  0  0  0  0  0  0  0  0  0  0
    4.6236   -1.3289    0.0000 C   0  0  0  0  0  0  0  0  0  0  0  0
    2.3118   -1.3289    0.0000 C   0  0  0  0  0  0  0  0  0  0  0  0
    5.7587   -1.9796    0.0000 O   0  0  0  0  0  0  0  0  0  0  0  0
    2.3118   -0.0000    0.0000 O   0  0  0  0  0  0  0  0  0  0  0  0
    1.1490   -1.9796    0.0000 O   0  0  0  0  0  0  0  0  0  0  0  0
    6.9077   -1.3289    0.0000 C   0  0  0  0  0  0  0  0  0  0  0  0
    0.0000   -1.3289    0.0000 C   0  0  0  0  0  0  0  0  0  0  0  0
  1  2  3  0  0  0  0 
  2  3  1  0  0  0  0 
  3  4  1  0  0  0  0 
  3  5  2  0  0  0  0 
  4  6  2  0  0  0  0 
  4  7  1  0  0  0  0 
  8  5  1  0  0  0  0 
  6  9  1  0  0  0  0 
  7 10  1  0  0  0  0 
  9  8  2  0  0  0  0 
 10 11  1  0  0  0  0 
 10 12  2  0  0  0  0 
 11 13  2  0  0  0  0 
 14 12  1  0  0  0  0 
 13 15  1  0  0  0  0 
 13 16  1  0  0  0  0 
 15 14  2  0  0  0  0 
 16 17  1  0  0  0  0 
 17 18  1  0  0  0  0 
 17 19  2  0  0  0  0 
 18 20  2  0  0  0  0 
 18 21  1  0  0  0  0 
 22 19  1  0  0  0  0 
 20 23  1  0  0  0  0 
 21 24  2  0  0  0  0 
 21 25  1  0  0  0  0 
 23 22  2  0  0  0  0 
 24 26  1  0  0  0  0 
 25 27  2  0  0  0  0 
 25 28  1  0  0  0  0 
 26 29  1  0  0  0  0 
 28 30  1  0  0  0  0 
M  END
> <Name>
Azoxystrobin

> <Source>
DSSTox2DMolFile

> <Tox>
-12.084

> <CAS>
131860-33-8

$$$$

  CDK

 24 27  0  0  0  0  0  0  0  0999 V2000
   -1.1038    1.0510    0.0000 O   0  0  0  0  0  0  0  0  0  0  0  0
   -0.8034    0.2639    0.0000 C   0  0  0  0  0  0  0  0  0  0  0  0
   -1.5856    0.0100    0.0000 C   0  0  0  0  0  0  0  0  0  0  0  0
   -0.2877   -0.4187    0.0000 C   0  0  0  0  0  0  0  0  0  0  0  0
   -2.3076    0.4192    0.0000 C   0  0  0  0  0  0  0  0  0  0  0  0
   -1.5856   -0.8119    0.0000 C   0  0  0  0  0  0  0  0  0  0  0  0
   -0.8356   -1.0736    0.0000 C   0  0  0  0  0  0  0  0  0  0  0  0
    0.3714   -0.9685    0.0000 C   0  0  0  0  0  0  0  0  0  0  0  0
    0.6259   -0.3578    0.0000 C   0  0  0  0  0  0  0  0  0  0  0  0
   -3.0182   -0.0049    0.0000 C   0  0  0  0  0  0  0  0  0  0  0  0
   -2.2878   -1.2358    0.0000 C   0  0  0  0  0  0  0  0  0  0  0  0
   -1.1027   -1.8529    0.0000 O   0  0  0  0  0  0  0  0  0  0  0  0
    0.4579   -1.8244    0.0000 C   0  0  0  0  0  0  0  0  0  0  0  0
    1.4829   -0.0344    0.0000 C   0  0  0  0  0  0  0  0  0  0  0  0
   -3.0065   -0.8326    0.0000 C   0  0  0  0  0  0  0  0  0  0  0  0
    1.9359   -0.7475    0.0000 O   0  0  0  0  0  0  0  0  0  0  0  0
    2.3352   -0.0408    0.0000 C   0  0  0  0  0  0  0  0  0  0  0  0
    1.3422    0.8473    0.0000 C   0  0  0  0  0  0  0  0  0  0  0  0
    2.0000    1.3668    0.0000 C   0  0  0  0  0  0  0  0  0  0  0  0
    0.5872    1.1869    0.0000 C   0  0  0  0  0  0  0  0  0  0  0  0
    1.8937    2.1866    0.0000 C   0  0  0  0  0  0  0  0  0  0  0  0
    0.4852    2.0025    0.0000 C   0  0  0  0  0  0  0  0  0  0  0  0
    1.1358    2.5038    0.0000 C   0  0  0  0  0  0  0  0  0  0  0  0
   -0.2714    2.2981    0.0000 Cl  0  0  0  0  0  0  0  0  0  0  0  0
  1  2  2  0  0  0  0 
  2  3  1  0  0  0  0 
  2  4  1  0  0  0  0 
  3  5  1  0  0  0  0 
  3  6  2  0  0  0  0 
  7  4  1  0  0  0  0 
  4  8  1  0  0  0  0 
  4  9  1  0  0  0  0 
  5 10  2  0  0  0  0 
 11  6  1  0  0  0  0 
  6  7  1  0  0  0  0 
  7 12  2  0  0  0  0 
  8 13  1  0  0  0  0 
  9 14  1  0  0  0  0 
 10 15  1  0  0  0  0 
 15 11  2  0  0  0  0 
 14 16  1  0  0  0  0 
 14 17  1  0  0  0  0 
 14 18  1  0  0  0  0 
 16 17  1  0  0  0  0 
 18 19  1  0  0  0  0 
 18 20  2  0  0  0  0 
 19 21  2  0  0  0  0 
 22 20  1  0  0  0  0 
 21 23  1  0  0  0  0 
 23 22  2  0  0  0  0 
 22 24  1  0  0  0  0 
M  END
> <Name>
INDANOFAN

> <Source>
Smiles

> <Tox>
-7.699

> <CAS>
133220-30-1

$$$$

  CDK

 21 22  0  0  0  0  0  0  0  0999 V2000
    2.0134   -0.0639    0.0000 C   0  0  0  0  0  0  0  0  0  0  0  0
    2.7279    0.3486    0.0000 C   0  0  0  0  0  0  0  0  0  0  0  0
    1.2989    0.3486    0.0000 C   0  0  0  0  0  0  0  0  0  0  0  0
    2.7279    1.1736    0.0000 C   0  0  0  0  0  0  0  0  0  0  0  0
    1.2989    1.1736    0.0000 C   0  0  0  0  0  0  0  0  0  0  0  0
    0.5845   -0.0639    0.0000 O   0  0  0  0  0  0  0  0  0  0  0  0
    2.0134    1.5861    0.0000 C   0  0  0  0  0  0  0  0  0  0  0  0
   -0.1300    0.3486    0.0000 C   0  0  0  0  0  0  0  0  0  0  0  0
   -0.1300    1.1736    0.0000 C   0  0  0  0  0  0  0  0  0  0  0  0
   -0.8445   -0.0639    0.0000 C   0  0  0  0  0  0  0  0  0  0  0  0
   -0.8445    1.5861    0.0000 C   0  0  0  0  0  0  0  0  0  0  0  0
   -1.5589    0.3486    0.0000 C   0  0  0  0  0  0  0  0  0  0  0  0
   -0.8445   -0.8889    0.0000 C   0  0  0  0  0  0  0  0  0  0  0  0
   -1.5589    1.1736    0.0000 C   0  0  0  0  0  0  0  0  0  0  0  0
   -1.5589   -1.3014    0.0000 C   0  0  0  0  0  0  0  0  0  0  0  0
   -0.1300   -1.3014    0.0000 N   0  0  0  0  0  0  0  0  0  0  0  0
   -1.5589   -2.1264    0.0000 O   0  0  0  0  0  0  0  0  0  0  0  0
   -2.2734   -0.8889    0.0000 N   0  0  0  0  0  0  0  0  0  0  0  0
    0.5845   -0.8889    0.0000 O   0  0  0  0  0  0  0  0  0  0  0  0
   -2.9879   -1.3014    0.0000 C   0  0  0  0  0  0  0  0  0  0  0  0
    1.2989   -1.3014    0.0000 C   0  0  0  0  0  0  0  0  0  0  0  0
  1  2  1  0  0  0  0 
  1  3  2  0  0  0  0 
  2  4  2  0  0  0  0 
  5  3  1  0  0  0  0 
  3  6  1  0  0  0  0 
  4  7  1  0  0  0  0 
  7  5  2  0  0  0  0 
  6  8  1  0  0  0  0 
  8  9  1  0  0  0  0 
  8 10  2  0  0  0  0 
  9 11  2  0  0  0  0 
 12 10  1  0  0  0  0 
 10 13  1  0  0  0  0 
 11 14  1  0  0  0  0 
 14 12  2  0  0  0  0 
 13 15  1  0  0  0  0 
 13 16  2  0  0  0  0 
 15 17  2  0  0  0  0 
 15 18  1  0  0  0  0 
 16 19  1  0  0  0  0 
 18 20  1  0  0  0  0 
 19 21  1  0  0  0  0 
M  END
> <Name>
SSF-126

> <Source>
Smiles

> <Tox>
-6.870

> <CAS>
133408-50-1

$$$$

  CDK

 13 14  0  0  0  0  0  0  0  0999 V2000
    0.0000   -4.6572    0.0000 O   0  0  0  0  0  0  0  0  0  0  0  0
    1.1503   -3.9866    0.0000 C   0  0  0  0  0  0  0  0  0  0  0  0
    1.1503   -2.6546    0.0000 C   0  0  0  0  0  0  0  0  0  0  0  0
    2.3053   -4.6572    0.0000 S   0  0  0  0  0  0  0  0  0  0  0  0
    2.3053   -2.0026    0.0000 C   0  0  0  0  0  0  0  0  0  0  0  0
    0.0000   -2.0026    0.0000 C   0  0  0  0  0  0  0  0  0  0  0  0
    3.4557   -3.9866    0.0000 C   0  0  0  0  0  0  0  0  0  0  0  0
    2.3053   -0.6706    0.0000 C   0  0  0  0  0  0  0  0  0  0  0  0
    3.5674   -2.3985    0.0000 S   0  0  0  0  0  0  0  0  0  0  0  0
    0.0000   -0.6706    0.0000 C   0  0  0  0  0  0  0  0  0  0  0  0
    1.1503   -0.0000    0.0000 C   0  0  0  0  0  0  0  0  0  0  0  0
    3.5674   -0.2561    0.0000 N   0  0  0  0  0  0  0  0  0  0  0  0
    4.3545   -1.3273    0.0000 N   0  0  0  0  0  0  0  0  0  0  0  0
  1  2  2  0  0  0  0 
  2  3  1  0  0  0  0 
  2  4  1  0  0  0  0 
  3  5  1  0  0  0  0 
  3  6  2  0  0  0  0 
  4  7  1  0  0  0  0 
  5  8  2  0  0  0  0 
  5  9  1  0  0  0  0 
 10  6  1  0  0  0  0 
  8 11  1  0  0  0  0 
  8 12  1  0  0  0  0 
 13  9  1  0  0  0  0 
 11 10  2  0  0  0  0 
 12 13  2  0  0  0  0 
M  END
> <Name>
CGA 245704

> <Source>
DSSTox2DMolFile

> <Tox>
-5.481

> <CAS>
135158-54-2

$$$$

  CDK

 26 27  0  0  0  0  0  0  0  0999 V2000
    0.0476   -2.5025    0.0000 C   0  0  0  0  0  0  0  0  0  0  0  0
    0.0476   -1.6775    0.0000 O   0  0  0  0  0  0  0  0  0  0  0  0
    0.7621   -1.2650    0.0000 C   0  0  0  0  0  0  0  0  0  0  0  0
    1.4766   -1.6775    0.0000 O   0  0  0  0  0  0  0  0  0  0  0  0
    0.7621   -0.4400    0.0000 C   0  0  0  0  0  0  0  0  0  0  0  0
    1.4766   -0.0275    0.0000 C   0  0  0  0  0  0  0  0  0  0  0  0
    0.0476   -0.0275    0.0000 C   0  0  0  0  0  0  0  0  0  0  0  0
    2.1910   -0.4400    0.0000 C   0  0  0  0  0  0  0  0  0  0  0  0
    1.4766    0.7975    0.0000 C   0  0  0  0  0  0  0  0  0  0  0  0
    0.0476    0.7975    0.0000 C   0  0  0  0  0  0  0  0  0  0  0  0
   -0.6668   -0.4400    0.0000 O   0  0  0  0  0  0  0  0  0  0  0  0
    2.1910   -1.2650    0.0000 C   0  0  0  0  0  0  0  0  0  0  0  0
    2.9055   -0.0275    0.0000 N   0  0  0  0  0  0  0  0  0  0  0  0
    0.7621    1.2100    0.0000 C   0  0  0  0  0  0  0  0  0  0  0  0
   -1.3813   -0.0275    0.0000 C   0  0  0  0  0  0  0  0  0  0  0  0
    3.6200   -0.4400    0.0000 O   0  0  0  0  0  0  0  0  0  0  0  0
   -1.3813    0.7975    0.0000 N   0  0  0  0  0  0  0  0  0  0  0  0
   -2.0958   -0.4400    0.0000 N   0  0  0  0  0  0  0  0  0  0  0  0
    4.3345   -0.0275    0.0000 C   0  0  0  0  0  0  0  0  0  0  0  0
   -2.0958    1.2100    0.0000 C   0  0  0  0  0  0  0  0  0  0  0  0
   -2.8103   -0.0275    0.0000 C   0  0  0  0  0  0  0  0  0  0  0  0
   -2.0958    2.0350    0.0000 O   0  0  0  0  0  0  0  0  0  0  0  0
   -2.8103    0.7975    0.0000 C   0  0  0  0  0  0  0  0  0  0  0  0
   -3.5247   -0.4400    0.0000 O   0  0  0  0  0  0  0  0  0  0  0  0
   -1.3813    2.4475    0.0000 C   0  0  0  0  0  0  0  0  0  0  0  0
   -4.2392   -0.0275    0.0000 C   0  0  0  0  0  0  0  0  0  0  0  0
  1  2  1  0  0  0  0 
  2  3  1  0  0  0  0 
  3  4  2  0  0  0  0 
  3  5  1  0  0  0  0 
  5  6  1  0  0  0  0 
  5  7  2  0  0  0  0 
  6  8  1  0  0  0  0 
  6  9  2  0  0  0  0 
 10  7  1  0  0  0  0 
  7 11  1  0  0  0  0 
  8 12  1  0  0  0  0 
  8 13  2  0  0  0  0 
  9 14  1  0  0  0  0 
 14 10  2  0  0  0  0 
 11 15  1  0  0  0  0 
 13 16  1  0  0  0  0 
 15 17  1  0  0  0  0 
 15 18  2  0  0  0  0 
 16 19  1  0  0  0  0 
 17 20  2  0  0  0  0 
 21 18  1  0  0  0  0 
 20 22  1  0  0  0  0 
 20 23  1  0  0  0  0 
 23 21  2  0  0  0  0 
 21 24  1  0  0  0  0 
 22 25  1  0  0  0  0 
 24 26  1  0  0  0  0 
M  END
> <Name>
Pyriminobac-methyl

> <Source>
Smiles

> <Tox>
-6.638

> <CAS>
136191-64-5

$$$$

  CDK

 24 26  0  0  0  0  0  0  0  0999 V2000
    3.8402   -2.6497    0.0000 C   0  0  0  0  0  0  0  0  0  0  0  0
    3.8402   -1.3345    0.0000 O   0  0  0  0  0  0  0  0  0  0  0  0
    2.6882   -3.3314    0.0000 C   0  0  0  0  0  0  0  0  0  0  0  0
    5.0019   -3.3314    0.0000 C   0  0  0  0  0  0  0  0  0  0  0  0
    1.4113   -2.9282    0.0000 C   0  0  0  0  0  0  0  0  0  0  0  0
    2.6978   -4.6467    0.0000 C   0  0  0  0  0  0  0  0  0  0  0  0
    6.1443   -2.6497    0.0000 C   0  0  0  0  0  0  0  0  0  0  0  0
    5.0019   -4.6467    0.0000 C   0  0  0  0  0  0  0  0  0  0  0  0
    0.6432   -4.0034    0.0000 O   0  0  0  0  0  0  0  0  0  0  0  0
    0.9793   -1.6513    0.0000 C   0  0  0  0  0  0  0  0  0  0  0  0
    1.4305   -5.0787    0.0000 N   0  0  0  0  0  0  0  0  0  0  0  0
    7.2964   -3.3314    0.0000 C   0  0  0  0  0  0  0  0  0  0  0  0
    6.1443   -1.3345    0.0000 S   0  0  0  0  0  0  0  0  0  0  0  0
    6.1443   -5.3187    0.0000 C   0  0  0  0  0  0  0  0  0  0  0  0
    0.0000   -0.7680    0.0000 C   0  0  0  0  0  0  0  0  0  0  0  0
    1.2577   -0.3552    0.0000 C   0  0  0  0  0  0  0  0  0  0  0  0
    7.2964   -4.6467    0.0000 C   0  0  0  0  0  0  0  0  0  0  0  0
    4.8099   -1.3345    0.0000 O   0  0  0  0  0  0  0  0  0  0  0  0
    7.4788   -1.3345    0.0000 O   0  0  0  0  0  0  0  0  0  0  0  0
    6.1443   -0.0000    0.0000 C   0  0  0  0  0  0  0  0  0  0  0  0
    8.4581   -5.3187    0.0000 C   0  0  0  0  0  0  0  0  0  0  0  0
    9.6005   -5.9811    0.0000 F   0  0  0  0  0  0  0  0  0  0  0  0
    9.1301   -4.1666    0.0000 F   0  0  0  0  0  0  0  0  0  0  0  0
    7.7860   -6.4804    0.0000 F   0  0  0  0  0  0  0  0  0  0  0  0
  1  2  2  0  0  0  0 
  1  3  1  0  0  0  0 
  1  4  1  0  0  0  0 
  3  5  2  0  0  0  0 
  3  6  1  0  0  0  0 
  4  7  2  0  0  0  0 
  4  8  1  0  0  0  0 
  9  5  1  0  0  0  0 
  5 10  1  0  0  0  0 
 11  6  2  0  0  0  0 
  7 12  1  0  0  0  0 
  7 13  1  0  0  0  0 
  8 14  2  0  0  0  0 
 11  9  1  0  0  0  0 
 10 15  1  0  0  0  0 
 10 16  1  0  0  0  0 
 12 17  2  0  0  0  0 
 13 18  2  0  0  0  0 
 13 19  2  0  0  0  0 
 13 20  1  0  0  0  0 
 14 17  1  0  0  0  0 
 15 16  1  0  0  0  0 
 17 21  1  0  0  0  0 
 21 22  1  0  0  0  0 
 21 23  1  0  0  0  0 
 21 24  1  0  0  0  0 
M  END
> <Name>
Isoxaflutole

> <Source>
DSSTox2DMolFile

> <Tox>
-8.125

> <CAS>
141112-29-0

$$$$

  CDK

 31 33  0  0  0  0  0  0  0  0999 V2000
    2.6549   -5.3699    0.0000 N   0  0  0  0  0  0  0  0  0  0  0  0
    3.5319   -6.3430    0.0000 C   0  0  0  0  0  0  0  0  0  0  0  0
    1.3575   -5.6462    0.0000 C   0  0  0  0  0  0  0  0  0  0  0  0
    2.7991   -4.0484    0.0000 C   0  0  0  0  0  0  0  0  0  0  0  0
    3.1354   -7.6164    0.0000 C   0  0  0  0  0  0  0  0  0  0  0  0
    0.9611   -6.9196    0.0000 C   0  0  0  0  0  0  0  0  0  0  0  0
    0.6848   -4.4929    0.0000 N   0  0  0  0  0  0  0  0  0  0  0  0
    1.5737   -3.5079    0.0000 C   0  0  0  0  0  0  0  0  0  0  0  0
    3.9403   -3.3637    0.0000 S   0  0  0  0  0  0  0  0  0  0  0  0
    1.8380   -7.9047    0.0000 C   0  0  0  0  0  0  0  0  0  0  0  0
    1.3094   -2.1984    0.0000 S   0  0  0  0  0  0  0  0  0  0  0  0
    3.2676   -2.2345    0.0000 O   0  0  0  0  0  0  0  0  0  0  0  0
    5.0936   -2.7270    0.0000 N   0  0  0  0  0  0  0  0  0  0  0  0
    4.6251   -4.5410    0.0000 O   0  0  0  0  0  0  0  0  0  0  0  0
    0.0000   -2.4867    0.0000 O   0  0  0  0  0  0  0  0  0  0  0  0
    2.6189   -1.9341    0.0000 O   0  0  0  0  0  0  0  0  0  0  0  0
    1.0211   -0.8890    0.0000 C   0  0  0  0  0  0  0  0  0  0  0  0
    6.2469   -3.3637    0.0000 C   0  0  0  0  0  0  0  0  0  0  0  0
    2.0062   -0.0000    0.0000 C   0  0  0  0  0  0  0  0  0  0  0  0
    6.2469   -4.7212    0.0000 O   0  0  0  0  0  0  0  0  0  0  0  0
    7.3881   -2.7270    0.0000 N   0  0  0  0  0  0  0  0  0  0  0  0
    8.5414   -3.3637    0.0000 C   0  0  0  0  0  0  0  0  0  0  0  0
    8.5414   -4.7212    0.0000 N   0  0  0  0  0  0  0  0  0  0  0  0
    9.7067   -2.7270    0.0000 N   0  0  0  0  0  0  0  0  0  0  0  0
    9.7067   -5.3699    0.0000 C   0  0  0  0  0  0  0  0  0  0  0  0
   10.8479   -3.3637    0.0000 C   0  0  0  0  0  0  0  0  0  0  0  0
   10.8479   -4.7212    0.0000 C   0  0  0  0  0  0  0  0  0  0  0  0
    9.7067   -6.6914    0.0000 O   0  0  0  0  0  0  0  0  0  0  0  0
   12.0132   -2.7270    0.0000 O   0  0  0  0  0  0  0  0  0  0  0  0
   10.8479   -7.3641    0.0000 C   0  0  0  0  0  0  0  0  0  0  0  0
   12.0132   -1.3935    0.0000 C   0  0  0  0  0  0  0  0  0  0  0  0
  1  2  1  0  0  0  0 
  1  3  1  0  0  0  0 
  1  4  1  0  0  0  0 
  2  5  2  0  0  0  0 
  3  6  1  0  0  0  0 
  3  7  2  0  0  0  0 
  8  4  2  0  0  0  0 
  4  9  1  0  0  0  0 
  5 10  1  0  0  0  0 
  6 10  2  0  0  0  0 
  7  8  1  0  0  0  0 
  8 11  1  0  0  0  0 
  9 12  2  0  0  0  0 
  9 13  1  0  0  0  0 
  9 14  2  0  0  0  0 
 11 15  2  0  0  0  0 
 11 16  2  0  0  0  0 
 11 17  1  0  0  0  0 
 13 18  1  0  0  0  0 
 17 19  1  0  0  0  0 
 18 20  2  0  0  0  0 
 18 21  1  0  0  0  0 
 21 22  1  0  0  0  0 
 23 22  2  0  0  0  0 
 24 22  1  0  0  0  0 
 23 25  1  0  0  0  0 
 24 26  2  0  0  0  0 
 27 25  2  0  0  0  0 
 25 28  1  0  0  0  0 
 27 26  1  0  0  0  0 
 26 29  1  0  0  0  0 
 28 30  1  0  0  0  0 
 29 31  1  0  0  0  0 
M  END
> <Name>
SULFOSULFURON

> <Source>
DSSTox2DMolFile

> <Tox>
-9.180

> <CAS>
141776-32-1

$$$$

  CDK

 22 23  0  0  0  0  0  0  0  0999 V2000
    2.2940   -3.3333    0.0000 O   0  0  0  0  0  0  0  0  0  0  0  0
    3.4474   -3.9923    0.0000 C   0  0  0  0  0  0  0  0  0  0  0  0
    1.1533   -3.9923    0.0000 C   0  0  0  0  0  0  0  0  0  0  0  0
    4.6007   -3.3333    0.0000 N   0  0  0  0  0  0  0  0  0  0  0  0
    3.4474   -5.3231    0.0000 O   0  0  0  0  0  0  0  0  0  0  0  0
    0.0000   -3.3333    0.0000 C   0  0  0  0  0  0  0  0  0  0  0  0
    1.1533   -5.3231    0.0000 C   0  0  0  0  0  0  0  0  0  0  0  0
    5.7540   -3.9923    0.0000 N   0  0  0  0  0  0  0  0  0  0  0  0
    6.9201   -3.3333    0.0000 C   0  0  0  0  0  0  0  0  0  0  0  0
    8.0734   -3.9923    0.0000 C   0  0  0  0  0  0  0  0  0  0  0  0
    6.9201   -2.0025    0.0000 C   0  0  0  0  0  0  0  0  0  0  0  0
    9.2267   -3.3333    0.0000 C   0  0  0  0  0  0  0  0  0  0  0  0
    8.0734   -1.3308    0.0000 C   0  0  0  0  0  0  0  0  0  0  0  0
    5.7540   -1.3308    0.0000 O   0  0  0  0  0  0  0  0  0  0  0  0
   10.3801   -3.9923    0.0000 C   0  0  0  0  0  0  0  0  0  0  0  0
    9.2267   -2.0025    0.0000 C   0  0  0  0  0  0  0  0  0  0  0  0
    5.7540   -0.0000    0.0000 C   0  0  0  0  0  0  0  0  0  0  0  0
   11.5207   -3.3333    0.0000 C   0  0  0  0  0  0  0  0  0  0  0  0
   10.3801   -5.3231    0.0000 C   0  0  0  0  0  0  0  0  0  0  0  0
   12.6741   -3.9923    0.0000 C   0  0  0  0  0  0  0  0  0  0  0  0
   11.5207   -5.9948    0.0000 C   0  0  0  0  0  0  0  0  0  0  0  0
   12.6741   -5.3231    0.0000 C   0  0  0  0  0  0  0  0  0  0  0  0
  1  2  1  0  0  0  0 
  1  3  1  0  0  0  0 
  2  4  1  0  0  0  0 
  2  5  2  0  0  0  0 
  3  6  1  0  0  0  0 
  3  7  1  0  0  0  0 
  4  8  1  0  0  0  0 
  8  9  1  0  0  0  0 
 10  9  1  0  0  0  0 
  9 11  2  0  0  0  0 
 12 10  2  0  0  0  0 
 13 11  1  0  0  0  0 
 11 14  1  0  0  0  0 
 12 15  1  0  0  0  0 
 12 16  1  0  0  0  0 
 16 13  2  0  0  0  0 
 14 17  1  0  0  0  0 
 15 18  2  0  0  0  0 
 15 19  1  0  0  0  0 
 18 20  1  0  0  0  0 
 19 21  2  0  0  0  0 
 20 22  2  0  0  0  0 
 21 22  1  0  0  0  0 
M  END
> <Name>
D2341 (Bifenazate)

> <Source>
DSSTox2DMolFile

> <Tox>
-7.125

> <CAS>
149877-41-8

$$$$

  CDK

 15 16  0  0  0  0  0  0  0  0999 V2000
   -1.3041   -2.8101   -0.0059 Cl  0  0  0  0  0  0  0  0  0  0  0  0
   -0.9260   -1.0991    0.0004 C   0  0  0  0  0  0  0  0  0  0  0  0
    0.3676   -0.5525    0.0003 C   0  0  0  0  0  0  0  0  0  0  0  0
   -2.0486   -0.2709    0.0005 C   0  0  0  0  0  0  0  0  0  0  0  0
    0.5247    0.8540    0.0003 C   0  0  0  0  0  0  0  0  0  0  0  0
    1.5088   -1.3711    0.0001 C   0  0  0  0  0  0  0  0  0  0  0  0
   -3.6774   -0.9106    0.0011 Cl  0  0  0  0  0  0  0  0  0  0  0  0
   -1.8942    1.1122    0.0005 C   0  0  0  0  0  0  0  0  0  0  0  0
   -0.6166    1.6725    0.0005 C   0  0  0  0  0  0  0  0  0  0  0  0
    1.8184    1.4005    0.0002 C   0  0  0  0  0  0  0  0  0  0  0  0
    1.6253   -3.1076    0.0037 Cl  0  0  0  0  0  0  0  0  0  0  0  0
    2.7866   -0.8109   -0.0001 C   0  0  0  0  0  0  0  0  0  0  0  0
   -3.2330    2.2133    0.0008 Cl  0  0  0  0  0  0  0  0  0  0  0  0
    2.1275    3.1081   -0.0022 Cl  0  0  0  0  0  0  0  0  0  0  0  0
    2.9410    0.5722    0.0000 C   0  0  0  0  0  0  0  0  0  0  0  0
  1  2  1  0  0  0  0 
  3  2  1  0  0  0  0 
  2  4  2  0  0  0  0 
  3  5  1  0  0  0  0 
  3  6  2  0  0  0  0 
  7  4  1  0  0  0  0 
  4  8  1  0  0  0  0 
  5  9  1  0  0  0  0 
  5 10  2  0  0  0  0 
 11  6  1  0  0  0  0 
  6 12  1  0  0  0  0 
 13  8  1  0  0  0  0 
  9  8  2  0  0  0  0 
 14 10  1  0  0  0  0 
 10 15  1  0  0  0  0 
 12 15  2  0  0  0  0 
M  END
> <Name>
1,2,3,5,8-Pentachloronaphthalene

> <Source>
Chemidplus3DMolFile

> <Tox>
-6.000

> <CAS>
150224-24-1

$$$$

  CDK

 26 28  0  0  0  0  0  0  0  0999 V2000
    7.5255   -2.1223    0.0000 N   0  0  0  0  0  0  0  0  0  0  0  0
    8.6599   -2.6589    0.0000 C   0  0  0  0  0  0  0  0  0  0  0  0
    6.6474   -3.1102    0.0000 C   0  0  0  0  0  0  0  0  0  0  0  0
    8.6599   -3.9274    0.0000 O   0  0  0  0  0  0  0  0  0  0  0  0
    9.8918   -1.9881    0.0000 C   0  0  0  0  0  0  0  0  0  0  0  0
    7.2938   -4.2689    0.0000 C   0  0  0  0  0  0  0  0  0  0  0  0
    5.3179   -3.1102    0.0000 C   0  0  0  0  0  0  0  0  0  0  0  0
    9.8918   -0.6586    0.0000 C   0  0  0  0  0  0  0  0  0  0  0  0
   11.0505   -2.6589    0.0000 C   0  0  0  0  0  0  0  0  0  0  0  0
    4.6471   -4.2689    0.0000 C   0  0  0  0  0  0  0  0  0  0  0  0
    4.6471   -1.9637    0.0000 C   0  0  0  0  0  0  0  0  0  0  0  0
   11.0505   -0.0000    0.0000 C   0  0  0  0  0  0  0  0  0  0  0  0
    8.7452   -0.0000    0.0000 F   0  0  0  0  0  0  0  0  0  0  0  0
   12.1970   -1.9881    0.0000 C   0  0  0  0  0  0  0  0  0  0  0  0
   11.0505   -3.9884    0.0000 F   0  0  0  0  0  0  0  0  0  0  0  0
    3.3176   -4.2689    0.0000 C   0  0  0  0  0  0  0  0  0  0  0  0
    5.3179   -5.4155    0.0000 O   0  0  0  0  0  0  0  0  0  0  0  0
    3.3176   -1.9637    0.0000 C   0  0  0  0  0  0  0  0  0  0  0  0
   12.1970   -0.6586    0.0000 C   0  0  0  0  0  0  0  0  0  0  0  0
    2.6589   -3.1102    0.0000 C   0  0  0  0  0  0  0  0  0  0  0  0
    4.6471   -6.5742    0.0000 C   0  0  0  0  0  0  0  0  0  0  0  0
    1.3295   -3.1102    0.0000 C   0  0  0  0  0  0  0  0  0  0  0  0
    5.3179   -7.7207    0.0000 C   0  0  0  0  0  0  0  0  0  0  0  0
    1.3295   -4.4397    0.0000 C   0  0  0  0  0  0  0  0  0  0  0  0
    1.3295   -1.7808    0.0000 C   0  0  0  0  0  0  0  0  0  0  0  0
    0.0000   -3.1102    0.0000 C   0  0  0  0  0  0  0  0  0  0  0  0
  1  2  2  0  0  0  0 
  1  3  1  0  0  0  0 
  2  4  1  0  0  0  0 
  2  5  1  0  0  0  0 
  3  6  1  0  0  0  0 
  3  7  1  0  0  0  0 
  4  6  1  0  0  0  0 
  5  8  2  0  0  0  0 
  5  9  1  0  0  0  0 
  7 10  2  0  0  0  0 
  7 11  1  0  0  0  0 
  8 12  1  0  0  0  0 
  8 13  1  0  0  0  0 
  9 14  2  0  0  0  0 
  9 15  1  0  0  0  0 
 10 16  1  0  0  0  0 
 10 17  1  0  0  0  0 
 11 18  2  0  0  0  0 
 12 19  2  0  0  0  0 
 14 19  1  0  0  0  0 
 16 20  2  0  0  0  0 
 17 21  1  0  0  0  0 
 18 20  1  0  0  0  0 
 20 22  1  0  0  0  0 
 21 23  1  0  0  0  0 
 22 24  1  0  0  0  0 
 22 25  1  0  0  0  0 
 22 26  1  0  0  0  0 
M  END
> <Name>
ETOXAZOLE

> <Source>
DSSTox2DMolFile

> <Tox>
-7.785

> <CAS>
153233-91-1

$$$$

  CDK

 16 17  0  0  0  0  0  0  0  0999 V2000
    1.4241   -0.8429    0.0000 C   0  0  0  0  0  0  0  0  0  0  0  0
    2.1386   -0.4304    0.0000 C   0  0  0  0  0  0  0  0  0  0  0  0
    0.7097   -0.4304    0.0000 C   0  0  0  0  0  0  0  0  0  0  0  0
    2.1386    0.3946    0.0000 C   0  0  0  0  0  0  0  0  0  0  0  0
    0.7097    0.3946    0.0000 C   0  0  0  0  0  0  0  0  0  0  0  0
   -0.0048   -0.8429    0.0000 O   0  0  0  0  0  0  0  0  0  0  0  0
    1.4241    0.8071    0.0000 C   0  0  0  0  0  0  0  0  0  0  0  0
   -0.7193   -0.4304    0.0000 C   0  0  0  0  0  0  0  0  0  0  0  0
    1.4241    1.6321    0.0000 Cl  0  0  0  0  0  0  0  0  0  0  0  0
   -0.7193    0.3946    0.0000 C   0  0  0  0  0  0  0  0  0  0  0  0
   -1.4337   -0.8429    0.0000 C   0  0  0  0  0  0  0  0  0  0  0  0
    0.1057    0.3946    0.0000 Cl  0  0  0  0  0  0  0  0  0  0  0  0
   -1.4337    0.8071    0.0000 C   0  0  0  0  0  0  0  0  0  0  0  0
   -2.1482   -0.4304    0.0000 C   0  0  0  0  0  0  0  0  0  0  0  0
   -2.1482    0.3946    0.0000 C   0  0  0  0  0  0  0  0  0  0  0  0
   -2.8627    0.8071    0.0000 Cl  0  0  0  0  0  0  0  0  0  0  0  0
  1  2  1  0  0  0  0 
  1  3  2  0  0  0  0 
  2  4  2  0  0  0  0 
  5  3  1  0  0  0  0 
  3  6  1  0  0  0  0 
  4  7  1  0  0  0  0 
  7  5  2  0  0  0  0 
  6  8  1  0  0  0  0 
  7  9  1  0  0  0  0 
  8 10  1  0  0  0  0 
  8 11  2  0  0  0  0 
 10 12  1  0  0  0  0 
 10 13  2  0  0  0  0 
 14 11  1  0  0  0  0 
 13 15  1  0  0  0  0 
 15 14  2  0  0  0  0 
 15 16  1  0  0  0  0 
M  END
> <Name>
2,3',4-Trichlorodiphenyl ether

> <Source>
Smiles

> <Tox>
-3.745

> <CAS>
155999-93-2

$$$$

  CDK

 16 17  0  0  0  0  0  0  0  0999 V2000
    1.4241   -0.8429    0.0000 C   0  0  0  0  0  0  0  0  0  0  0  0
    2.1386   -0.4304    0.0000 C   0  0  0  0  0  0  0  0  0  0  0  0
    0.7097   -0.4304    0.0000 C   0  0  0  0  0  0  0  0  0  0  0  0
    2.1386    0.3946    0.0000 C   0  0  0  0  0  0  0  0  0  0  0  0
    0.7097    0.3946    0.0000 C   0  0  0  0  0  0  0  0  0  0  0  0
   -0.0048   -0.8429    0.0000 O   0  0  0  0  0  0  0  0  0  0  0  0
    2.8531    0.8071    0.0000 Cl  0  0  0  0  0  0  0  0  0  0  0  0
    1.4241    0.8071    0.0000 C   0  0  0  0  0  0  0  0  0  0  0  0
   -0.7193   -0.4304    0.0000 C   0  0  0  0  0  0  0  0  0  0  0  0
   -0.7193    0.3946    0.0000 C   0  0  0  0  0  0  0  0  0  0  0  0
   -1.4337   -0.8429    0.0000 C   0  0  0  0  0  0  0  0  0  0  0  0
    0.1057    0.3946    0.0000 Cl  0  0  0  0  0  0  0  0  0  0  0  0
   -1.4337    0.8071    0.0000 C   0  0  0  0  0  0  0  0  0  0  0  0
   -2.1482   -0.4304    0.0000 C   0  0  0  0  0  0  0  0  0  0  0  0
   -1.4337    1.6321    0.0000 Cl  0  0  0  0  0  0  0  0  0  0  0  0
   -2.1482    0.3946    0.0000 C   0  0  0  0  0  0  0  0  0  0  0  0
  1  2  1  0  0  0  0 
  1  3  2  0  0  0  0 
  2  4  2  0  0  0  0 
  5  3  1  0  0  0  0 
  3  6  1  0  0  0  0 
  4  7  1  0  0  0  0 
  4  8  1  0  0  0  0 
  8  5  2  0  0  0  0 
  6  9  1  0  0  0  0 
  9 10  1  0  0  0  0 
  9 11  2  0  0  0  0 
 10 12  1  0  0  0  0 
 10 13  2  0  0  0  0 
 14 11  1  0  0  0  0 
 13 15  1  0  0  0  0 
 13 16  1  0  0  0  0 
 16 14  2  0  0  0  0 
M  END
> <Name>
2,3,4'-Trichlorodiphenyl ether

> <Source>
Smiles

> <Tox>
-3.943

> <CAS>
157683-71-1

$$$$

  CDK

 16 17  0  0  0  0  0  0  0  0999 V2000
    1.4241   -0.8429    0.0000 C   0  0  0  0  0  0  0  0  0  0  0  0
    2.1386   -0.4304    0.0000 C   0  0  0  0  0  0  0  0  0  0  0  0
    0.7097   -0.4304    0.0000 C   0  0  0  0  0  0  0  0  0  0  0  0
    2.1386    0.3946    0.0000 C   0  0  0  0  0  0  0  0  0  0  0  0
    0.7097    0.3946    0.0000 C   0  0  0  0  0  0  0  0  0  0  0  0
   -0.0048   -0.8429    0.0000 O   0  0  0  0  0  0  0  0  0  0  0  0
    2.8531    0.8071    0.0000 Cl  0  0  0  0  0  0  0  0  0  0  0  0
    1.4241    0.8071    0.0000 C   0  0  0  0  0  0  0  0  0  0  0  0
   -0.7193   -0.4304    0.0000 C   0  0  0  0  0  0  0  0  0  0  0  0
   -0.7193    0.3946    0.0000 C   0  0  0  0  0  0  0  0  0  0  0  0
   -1.4337   -0.8429    0.0000 C   0  0  0  0  0  0  0  0  0  0  0  0
    0.1057    0.3946    0.0000 Cl  0  0  0  0  0  0  0  0  0  0  0  0
   -1.4337    0.8071    0.0000 C   0  0  0  0  0  0  0  0  0  0  0  0
   -2.1482   -0.4304    0.0000 C   0  0  0  0  0  0  0  0  0  0  0  0
   -1.4337   -1.6679    0.0000 Cl  0  0  0  0  0  0  0  0  0  0  0  0
   -2.1482    0.3946    0.0000 C   0  0  0  0  0  0  0  0  0  0  0  0
  1  2  1  0  0  0  0 
  1  3  2  0  0  0  0 
  2  4  2  0  0  0  0 
  5  3  1  0  0  0  0 
  3  6  1  0  0  0  0 
  4  7  1  0  0  0  0 
  4  8  1  0  0  0  0 
  8  5  2  0  0  0  0 
  6  9  1  0  0  0  0 
  9 10  1  0  0  0  0 
  9 11  2  0  0  0  0 
 10 12  1  0  0  0  0 
 10 13  2  0  0  0  0 
 14 11  1  0  0  0  0 
 11 15  1  0  0  0  0 
 13 16  1  0  0  0  0 
 16 14  2  0  0  0  0 
M  END
> <Name>
2,4',6-Trichlorodiphenyl ether

> <Source>
Smiles

> <Tox>
-3.656

> <CAS>
157683-72-2

$$$$

  CDK

 16 17  0  0  0  0  0  0  0  0999 V2000
    1.4241   -0.8429    0.0000 C   0  0  0  0  0  0  0  0  0  0  0  0
    2.1386   -0.4304    0.0000 C   0  0  0  0  0  0  0  0  0  0  0  0
    0.7097   -0.4304    0.0000 C   0  0  0  0  0  0  0  0  0  0  0  0
    2.1386    0.3946    0.0000 C   0  0  0  0  0  0  0  0  0  0  0  0
    0.7097    0.3946    0.0000 C   0  0  0  0  0  0  0  0  0  0  0  0
   -0.0048   -0.8429    0.0000 O   0  0  0  0  0  0  0  0  0  0  0  0
    1.4241    0.8071    0.0000 C   0  0  0  0  0  0  0  0  0  0  0  0
   -0.7193   -0.4304    0.0000 C   0  0  0  0  0  0  0  0  0  0  0  0
   -0.7193    0.3946    0.0000 C   0  0  0  0  0  0  0  0  0  0  0  0
   -1.4337   -0.8429    0.0000 C   0  0  0  0  0  0  0  0  0  0  0  0
    0.1057    0.3946    0.0000 Cl  0  0  0  0  0  0  0  0  0  0  0  0
   -1.4337    0.8071    0.0000 C   0  0  0  0  0  0  0  0  0  0  0  0
   -2.1482   -0.4304    0.0000 C   0  0  0  0  0  0  0  0  0  0  0  0
   -1.4337    1.6321    0.0000 Cl  0  0  0  0  0  0  0  0  0  0  0  0
   -2.1482    0.3946    0.0000 C   0  0  0  0  0  0  0  0  0  0  0  0
   -2.8627   -0.8429    0.0000 Cl  0  0  0  0  0  0  0  0  0  0  0  0
  1  2  1  0  0  0  0 
  1  3  2  0  0  0  0 
  2  4  2  0  0  0  0 
  5  3  1  0  0  0  0 
  3  6  1  0  0  0  0 
  4  7  1  0  0  0  0 
  7  5  2  0  0  0  0 
  6  8  1  0  0  0  0 
  8  9  1  0  0  0  0 
  8 10  2  0  0  0  0 
  9 11  1  0  0  0  0 
  9 12  2  0  0  0  0 
 13 10  1  0  0  0  0 
 12 14  1  0  0  0  0 
 12 15  1  0  0  0  0 
 15 13  2  0  0  0  0 
 13 16  1  0  0  0  0 
M  END
> <Name>
2,3,5-Trichlorodiphenyl ether

> <Source>
Smiles

> <Tox>
-3.656

> <CAS>
162853-24-9

$$$$

  CDK

 16 17  0  0  0  0  0  0  0  0999 V2000
    1.4241   -0.8429    0.0000 C   0  0  0  0  0  0  0  0  0  0  0  0
    2.1386   -0.4304    0.0000 C   0  0  0  0  0  0  0  0  0  0  0  0
    0.7097   -0.4304    0.0000 C   0  0  0  0  0  0  0  0  0  0  0  0
    2.1386    0.3946    0.0000 C   0  0  0  0  0  0  0  0  0  0  0  0
    0.7097    0.3946    0.0000 C   0  0  0  0  0  0  0  0  0  0  0  0
   -0.0048   -0.8429    0.0000 O   0  0  0  0  0  0  0  0  0  0  0  0
    1.4241    0.8071    0.0000 C   0  0  0  0  0  0  0  0  0  0  0  0
   -0.7193   -0.4304    0.0000 C   0  0  0  0  0  0  0  0  0  0  0  0
   -0.7193    0.3946    0.0000 C   0  0  0  0  0  0  0  0  0  0  0  0
   -1.4337   -0.8429    0.0000 C   0  0  0  0  0  0  0  0  0  0  0  0
    0.1057    0.3946    0.0000 Cl  0  0  0  0  0  0  0  0  0  0  0  0
   -1.4337    0.8071    0.0000 C   0  0  0  0  0  0  0  0  0  0  0  0
   -2.1482   -0.4304    0.0000 C   0  0  0  0  0  0  0  0  0  0  0  0
   -1.4337   -1.6679    0.0000 Cl  0  0  0  0  0  0  0  0  0  0  0  0
   -1.4337    1.6321    0.0000 Cl  0  0  0  0  0  0  0  0  0  0  0  0
   -2.1482    0.3946    0.0000 C   0  0  0  0  0  0  0  0  0  0  0  0
  1  2  1  0  0  0  0 
  1  3  2  0  0  0  0 
  2  4  2  0  0  0  0 
  5  3  1  0  0  0  0 
  3  6  1  0  0  0  0 
  4  7  1  0  0  0  0 
  7  5  2  0  0  0  0 
  6  8  1  0  0  0  0 
  8  9  1  0  0  0  0 
  8 10  2  0  0  0  0 
  9 11  1  0  0  0  0 
  9 12  2  0  0  0  0 
 13 10  1  0  0  0  0 
 10 14  1  0  0  0  0 
 12 15  1  0  0  0  0 
 12 16  1  0  0  0  0 
 16 13  2  0  0  0  0 
M  END
> <Name>
2,3,6-Trichlorodiphenyl ether

> <Source>
Smiles

> <Tox>
-3.545

> <CAS>
162853-25-0

$$$$

  CDK

 18 19  0  0  0  0  0  0  0  0999 V2000
   -1.7383   -2.4540    1.4401 Br  0  0  0  0  0  0  0  0  0  0  0  0
   -1.9855   -0.7724    0.5653 C   0  0  0  0  0  0  0  0  0  0  0  0
   -0.9260    0.1303    0.5892 C   0  0  0  0  0  0  0  0  0  0  0  0
   -3.1730   -0.4313   -0.0822 C   0  0  0  0  0  0  0  0  0  0  0  0
    0.2576   -0.1616    1.2123 O   0  0  0  0  0  0  0  0  0  0  0  0
   -1.0451    1.3719   -0.0298 C   0  0  0  0  0  0  0  0  0  0  0  0
   -4.6400   -1.6642   -0.1250 Br  0  0  0  0  0  0  0  0  0  0  0  0
   -3.2965    0.8114   -0.7034 C   0  0  0  0  0  0  0  0  0  0  0  0
    1.4418   -0.1886    0.5377 C   0  0  0  0  0  0  0  0  0  0  0  0
   -2.2325    1.7131   -0.6772 C   0  0  0  0  0  0  0  0  0  0  0  0
   -4.8642    1.3887   -1.6175 Br  0  0  0  0  0  0  0  0  0  0  0  0
    2.4967    0.6552    0.8851 C   0  0  0  0  0  0  0  0  0  0  0  0
    1.5859   -1.0858   -0.5207 C   0  0  0  0  0  0  0  0  0  0  0  0
    2.3357    1.8873    2.3165 Br  0  0  0  0  0  0  0  0  0  0  0  0
    3.6956    0.6020    0.1743 C   0  0  0  0  0  0  0  0  0  0  0  0
    2.7847   -1.1390   -1.2314 C   0  0  0  0  0  0  0  0  0  0  0  0
    3.8397   -0.2952   -0.8840 C   0  0  0  0  0  0  0  0  0  0  0  0
    5.4632   -0.3678   -1.8490 Br  0  0  0  0  0  0  0  0  0  0  0  0
  1  2  1  0  0  0  0 
  3  2  2  0  0  0  0 
  2  4  1  0  0  0  0 
  5  3  1  0  0  0  0 
  3  6  1  0  0  0  0 
  7  4  1  0  0  0  0 
  4  8  2  0  0  0  0 
  5  9  1  0  0  0  0 
  6 10  2  0  0  0  0 
 11  8  1  0  0  0  0 
 10  8  1  0  0  0  0 
  9 12  2  0  0  0  0 
  9 13  1  0  0  0  0 
 14 12  1  0  0  0  0 
 12 15  1  0  0  0  0 
 13 16  2  0  0  0  0 
 15 17  2  0  0  0  0 
 16 17  1  0  0  0  0 
 18 17  1  0  0  0  0 
M  END
> <Name>
2,2',3,4,4'-Pentabromodiphenyl ether

> <Source>
Chemidplus3DMolFile

> <Tox>
-8.143

> <CAS>
182346-21-0

$$$$

  CDK

 20 21  0  0  0  0  0  0  0  0999 V2000
    1.4241   -1.6679    0.0000 Br  0  0  0  0  0  0  0  0  0  0  0  0
    1.4241   -0.8429    0.0000 C   0  0  0  0  0  0  0  0  0  0  0  0
    2.1386   -0.4304    0.0000 C   0  0  0  0  0  0  0  0  0  0  0  0
    0.7097   -0.4304    0.0000 C   0  0  0  0  0  0  0  0  0  0  0  0
    2.1386    0.3946    0.0000 C   0  0  0  0  0  0  0  0  0  0  0  0
    2.8531   -0.8429    0.0000 Br  0  0  0  0  0  0  0  0  0  0  0  0
    0.7097    0.3946    0.0000 C   0  0  0  0  0  0  0  0  0  0  0  0
   -0.0048   -0.8429    0.0000 O   0  0  0  0  0  0  0  0  0  0  0  0
    2.8531    0.8071    0.0000 Br  0  0  0  0  0  0  0  0  0  0  0  0
    1.4241    0.8071    0.0000 C   0  0  0  0  0  0  0  0  0  0  0  0
   -0.0048    0.8071    0.0000 Br  0  0  0  0  0  0  0  0  0  0  0  0
   -0.7193   -0.4304    0.0000 C   0  0  0  0  0  0  0  0  0  0  0  0
    1.4241    1.6321    0.0000 Br  0  0  0  0  0  0  0  0  0  0  0  0
   -0.7193    0.3946    0.0000 C   0  0  0  0  0  0  0  0  0  0  0  0
   -1.4337   -0.8429    0.0000 C   0  0  0  0  0  0  0  0  0  0  0  0
   -1.4337    0.8071    0.0000 C   0  0  0  0  0  0  0  0  0  0  0  0
   -2.1482   -0.4304    0.0000 C   0  0  0  0  0  0  0  0  0  0  0  0
   -2.1482    0.3946    0.0000 C   0  0  0  0  0  0  0  0  0  0  0  0
   -2.8627   -0.8429    0.0000 Br  0  0  0  0  0  0  0  0  0  0  0  0
   -2.8627    0.8071    0.0000 Br  0  0  0  0  0  0  0  0  0  0  0  0
  1  2  1  0  0  0  0 
  2  3  2  0  0  0  0 
  2  4  1  0  0  0  0 
  3  5  1  0  0  0  0 
  3  6  1  0  0  0  0 
  7  4  2  0  0  0  0 
  4  8  1  0  0  0  0 
  5  9  1  0  0  0  0 
  5 10  2  0  0  0  0 
 10  7  1  0  0  0  0 
  7 11  1  0  0  0  0 
  8 12  1  0  0  0  0 
 10 13  1  0  0  0  0 
 12 14  2  0  0  0  0 
 12 15  1  0  0  0  0 
 14 16  1  0  0  0  0 
 17 15  2  0  0  0  0 
 16 18  2  0  0  0  0 
 18 17  1  0  0  0  0 
 17 19  1  0  0  0  0 
 18 20  1  0  0  0  0 
M  END
> <Name>
2,3,3',4,4,',5,6-Heptabromodiphenyl ether

> <Source>
Smiles

> <Tox>
-9.456

> <CAS>
189084-68-2

$$$$
